
Version,
  25.2;                                   !- Version Identifier

Timestep,
  6;                                      !- Number of Timesteps per Hour

RunPeriod,
  Run Period 1,                           !- Name
  4,                                      !- Begin Month
  1,                                      !- Begin Day of Month
  2024,                                   !- Begin Year
  4,                                      !- End Month
  1,                                      !- End Day of Month
  2025,                                   !- End Year
  Monday,                                 !- Day of Week for Start Day
  No,                                     !- Use Weather File Holidays and Special Days
  No,                                     !- Use Weather File Daylight Saving Period
  No,                                     !- Apply Weekend Holiday Rule
  Yes,                                    !- Use Weather File Rain Indicators
  Yes;                                    !- Use Weather File Snow Indicators

Site:Location,
  Reykjavik,                              !- Name
  64.133,                                 !- Latitude {deg}
  -21.9,                                  !- Longitude {deg}
  0,                                      !- Time Zone {hr}
  64;                                     !- Elevation {m}

Site:GroundTemperature:BuildingSurface,
  3.0,    !- January Ground Temperature {C}
  2.6,    !- February
  2.4,    !- March
  2.2,    !- April
  3.5,    !- May
  5.8,    !- June
  8.4,    !- July
  10.2,   !- August
  10.6,   !- September
  10.0,   !- October
  7.6,    !- November
  5.0;    !- December

SimulationControl,
  No,                                     !- Do Zone Sizing Calculation
  No,                                     !- Do System Sizing Calculation
  No,                                     !- Do Plant Sizing Calculation
  No,                                     !- Run Simulation for Sizing Periods
  Yes,                                    !- Run Simulation for Weather File Run Periods
  ,                                       !- Do HVAC Sizing Simulation for Sizing Periods
  ;                                       !- Maximum Number of HVAC Sizing Simulation Passes

HeatBalanceAlgorithm,
  ConductionTransferFunction,             !- Algorithm
  200;                                    !- Surface Temperature Upper Limit {C}

ConvergenceLimits,
  1;                                      !- Minimum System Timestep {minutes}

ShadowCalculation,
  PolygonClipping,                        !- Shading Calculation Method
  Periodic,                               !- Shading Calculation Update Frequency Method
  20,                                     !- Shading Calculation Update Frequency
  15000,                                  !- Maximum Figures in Shadow Overlap Calculations
  SutherlandHodgman,                      !- Polygon Clipping Algorithm
  512,                                    !- Pixel Counting Resolution
  SimpleSkyDiffuseModeling,               !- Sky Diffuse Modeling Algorithm
  No,                                     !- Output External Shading Calculation Results
  No,                                     !- Disable Self-Shading Within Shading Zone Groups
  No;                                     !- Disable Self-Shading From Shading Zone Groups to Other Zones

Sizing:Parameters,
  1.25,                                   !- Heating Sizing Factor
  1.15;                                   !- Cooling Sizing Factor

GlobalGeometryRules,
  UpperLeftCorner,                        !- Starting Vertex Position
  Counterclockwise,                       !- Vertex Entry Direction
  Relative,                               !- Coordinate System
  Relative,                               !- Daylighting Reference Point Coordinate System
  Relative;                               !- Rectangular Surface Coordinate System

Building,
  BG2,                                    !- Name
  270,                                    !- North Axis {deg}
  City,                                   !- Terrain
  ,                                       !- Loads Convergence Tolerance Value {W}
  ,                                       !- Temperature Convergence Tolerance Value {deltaC}
  FullExterior,                           !- Solar Distribution: FullExterior accounts for shading objects
  ,                                       !- Maximum Number of Warmup Days
  ;                                       !- Minimum Number of Warmup Days

Zone,
  TZ_BG2,                                 !- Name
  ,                                       !- Direction of Relative North {deg}
  0,                                      !- X Origin {m}
  0,                                      !- Y Origin {m}
  0,                                      !- Z Origin {m}
  ,                                       !- Type
  1,                                      !- Multiplier
  ,                                       !- Ceiling Height {m}
  605.28,                                 !- Volume {m3}
  211.20,                                 !- Floor Area {m2}
  ,                                       !- Zone Inside Convection Algorithm
  ,                                       !- Zone Outside Convection Algorithm
  Yes;                                    !- Part of Total Floor Area

BuildingSurface:Detailed,
  East Wall 1 (above grade),              !- Name
  Wall,                                   !- Surface Type
  BG2 - Ext Wall,                         !- Construction Name
  TZ_BG2,                                 !- Zone Name
  ,                                       !- Space Name
  Outdoors,                               !- Outside Boundary Condition
  ,                                       !- Outside Boundary Condition Object
  SunExposed,                             !- Sun Exposure
  NoWind,                                 !- Wind Exposure
  ,                                       !- View Factor to Ground
  ,                                       !- Number of Vertices
  5.8, 0, 2.35,                           !- X,Y,Z Vertex 1 {m}
  0, 0, 2.35,                             !- X,Y,Z Vertex 2 {m}
  0, 0, 0,                                !- X,Y,Z Vertex 3 {m}
  5.8, 0, 0;                              !- X,Y,Z Vertex 4 {m}

FenestrationSurface:Detailed,
  D1,                                     !- Name
  Door,                                   !- Surface Type
  BG2 - Ext Door,                         !- Construction Name
  East Wall 1 (above grade),              !- Building Surface Name
  ,                                       !- Outside Boundary Condition Object
  ,                                       !- View Factor to Ground
  ,                                       !- Frame and Divider Name
  ,                                       !- Multiplier
  ,                                       !- Number of Vertices
  4.85, 0, 2.11,                          !- X,Y,Z Vertex 1 {m}
  4.85, 0, 0.01,                          !- X,Y,Z Vertex 2 {m}
  5.75, 0, 0.01,                          !- X,Y,Z Vertex 3 {m}
  5.75, 0, 2.11;                          !- X,Y,Z Vertex 4 {m}

FenestrationSurface:Detailed,
  W1,                                     !- Name
  Window,                                 !- Surface Type
  BG2 - Window/GlassDoor,                 !- Construction Name
  East Wall 1 (above grade),              !- Building Surface Name
  ,                                       !- Outside Boundary Condition Object
  ,                                       !- View Factor to Ground
  ,                                       !- Frame and Divider Name
  ,                                       !- Multiplier
  ,                                       !- Number of Vertices
  0.55, 0, 2.1,                           !- X,Y,Z Vertex 1 {m}
  0.55, 0, 1.9,                           !- X,Y,Z Vertex 2 {m}
  1.95, 0, 1.9,                           !- X,Y,Z Vertex 3 {m}
  1.95, 0, 2.1;                           !- X,Y,Z Vertex 4 {m}

FenestrationSurface:Detailed,
  W2,                                     !- Name
  Window,                                 !- Surface Type
  BG2 - Window/GlassDoor,                 !- Construction Name
  East Wall 1 (above grade),              !- Building Surface Name
  ,                                       !- Outside Boundary Condition Object
  ,                                       !- View Factor to Ground
  ,                                       !- Frame and Divider Name
  ,                                       !- Multiplier
  ,                                       !- Number of Vertices
  0.55, 0, 1.9,                           !- X,Y,Z Vertex 1 {m}
  0.55, 0, 1.3,                           !- X,Y,Z Vertex 2 {m}
  1.95, 0, 1.3,                           !- X,Y,Z Vertex 3 {m}
  1.95, 0, 1.9;                           !- X,Y,Z Vertex 4 {m}

FenestrationSurface:Detailed,
  W3,                                     !- Name
  Window,                                 !- Surface Type
  BG2 - Window/GlassDoor,                 !- Construction Name
  East Wall 1 (above grade),              !- Building Surface Name
  ,                                       !- Outside Boundary Condition Object
  ,                                       !- View Factor to Ground
  ,                                       !- Frame and Divider Name
  ,                                       !- Multiplier
  ,                                       !- Number of Vertices
  3.25, 0, 2.1,                           !- X,Y,Z Vertex 1 {m}
  3.25, 0, 1.9,                           !- X,Y,Z Vertex 2 {m}
  4.65, 0, 1.9,                           !- X,Y,Z Vertex 3 {m}
  4.65, 0, 2.1;                           !- X,Y,Z Vertex 4 {m}

FenestrationSurface:Detailed,
  W4,                                     !- Name
  Window,                                 !- Surface Type
  BG2 - Window/GlassDoor,                 !- Construction Name
  East Wall 1 (above grade),              !- Building Surface Name
  ,                                       !- Outside Boundary Condition Object
  ,                                       !- View Factor to Ground
  ,                                       !- Frame and Divider Name
  ,                                       !- Multiplier
  ,                                       !- Number of Vertices
  3.25, 0, 1.9,                           !- X,Y,Z Vertex 1 {m}
  3.25, 0, 1.3,                           !- X,Y,Z Vertex 2 {m}
  4.65, 0, 1.3,                           !- X,Y,Z Vertex 3 {m}
  4.65, 0, 1.9;                           !- X,Y,Z Vertex 4 {m}


BuildingSurface:Detailed,
  Floor on Fill E (above grade),          !- Name
  Floor,                                  !- Surface Type
  BG2 - Floor on Fill,                    !- Construction Name
  TZ_BG2,                                 !- Zone Name
  ,                                       !- Space Name
  Ground,                                 !- Outside Boundary Condition
  ,                                       !- Outside Boundary Condition Object
  NoSun,                                  !- Sun Exposure
  NoWind,                                 !- Wind Exposure
  ,                                       !- View Factor to Ground
  ,                                       !- Number of Vertices
  0, 0, 0,                                !- X,Y,Z Vertex 1 {m}
  0, 4.5, 0,                              !- X,Y,Z Vertex 2 {m}
  5.8, 4.5, 0,                            !- X,Y,Z Vertex 3 {m}
  5.8, 0, 0;                              !- X,Y,Z Vertex 4 {m}

BuildingSurface:Detailed,
  South Wall 1b,                          !- Name
  Wall,                                   !- Surface Type
  BG2 - Party Wall,                       !- Construction Name
  TZ_BG2,                                 !- Zone Name
  ,                                       !- Space Name
  Adiabatic,                              !- Outside Boundary Condition
  ,                                       !- Outside Boundary Condition Object
  NoSun,                                  !- Sun Exposure
  NoWind,                                 !- Wind Exposure
  ,                                       !- View Factor to Ground
  ,                                       !- Number of Vertices
  0, 0, 2.35,                             !- X,Y,Z Vertex 1 {m}
  0, 4.5, 2.35,                           !- X,Y,Z Vertex 2 {m}
  0, 4.5, 0,                              !- X,Y,Z Vertex 3 {m}
  0, 0, 0;                                !- X,Y,Z Vertex 4 {m}

BuildingSurface:Detailed,
  West Wall 0b,                           !- Name
  Wall,                                   !- Surface Type
  BG2 - Ext Wall,                         !- Construction Name
  TZ_BG2,                                 !- Zone Name
  ,                                       !- Space Name
  Ground,                                 !- Outside Boundary Condition
  ,                                       !- Outside Boundary Condition Object
  NoSun,                                  !- Sun Exposure
  NoWind,                                 !- Wind Exposure
  ,                                       !- View Factor to Ground
  ,                                       !- Number of Vertices
  5.8, 4.5, 0.55,                         !- X,Y,Z Vertex 1 {m}
  5.8, 4.5, 0,                            !- X,Y,Z Vertex 2 {m}
  0, 4.5, 0,                              !- X,Y,Z Vertex 3 {m}
  0, 4.5, 0.55;                           !- X,Y,Z Vertex 4 {m}

BuildingSurface:Detailed,
  East Wall 1 (below grade),              !- Name
  Wall,                                   !- Surface Type
  BG2 - Ext Wall,                         !- Construction Name
  TZ_BG2,                                 !- Zone Name
  ,                                       !- Space Name
  Ground,                                 !- Outside Boundary Condition
  ,                                       !- Outside Boundary Condition Object
  NoSun,                                  !- Sun Exposure
  NoWind,                                 !- Wind Exposure
  ,                                       !- View Factor to Ground
  ,                                       !- Number of Vertices
  9.6, 0, 2.35,                           !- X,Y,Z Vertex 1 {m}
  5.8, 0, 2.35,                           !- X,Y,Z Vertex 2 {m}
  5.8, 0, 0,                              !- X,Y,Z Vertex 3 {m}
  9.6, 0, 0;                              !- X,Y,Z Vertex 4 {m}

BuildingSurface:Detailed,
  Floor on Fill E (below grade),          !- Name
  Floor,                                  !- Surface Type
  BG2 - Floor on Fill,                    !- Construction Name
  TZ_BG2,                                 !- Zone Name
  ,                                       !- Space Name
  Ground,                                 !- Outside Boundary Condition
  ,                                       !- Outside Boundary Condition Object
  NoSun,                                  !- Sun Exposure
  NoWind,                                 !- Wind Exposure
  ,                                       !- View Factor to Ground
  ,                                       !- Number of Vertices
  5.8, 0, 0,                              !- X,Y,Z Vertex 1 {m}
  5.8, 4.5, 0,                            !- X,Y,Z Vertex 2 {m}
  9.6, 4.5, 0,                            !- X,Y,Z Vertex 3 {m}
  9.6, 0, 0;                              !- X,Y,Z Vertex 4 {m}

BuildingSurface:Detailed,
  North Wall 1a,                          !- Name
  Wall,                                   !- Surface Type
  BG2 - Party Wall,                       !- Construction Name
  TZ_BG2,                                 !- Zone Name
  ,                                       !- Space Name
  Adiabatic,                              !- Outside Boundary Condition
  ,                                       !- Outside Boundary Condition Object
  NoSun,                                  !- Sun Exposure
  NoWind,                                 !- Wind Exposure
  ,                                       !- View Factor to Ground
  ,                                       !- Number of Vertices
  9.6, 4.5, 2.35,                         !- X,Y,Z Vertex 1 {m}
  9.6, 0, 2.35,                           !- X,Y,Z Vertex 2 {m}
  9.6, 0, 0,                              !- X,Y,Z Vertex 3 {m}
  9.6, 4.5, 0;                            !- X,Y,Z Vertex 4 {m}

BuildingSurface:Detailed,
  West Wall 0a,                           !- Name
  Wall,                                   !- Surface Type
  BG2 - Ext Wall,                         !- Construction Name
  TZ_BG2,                                 !- Zone Name
  ,                                       !- Space Name
  Ground,                                 !- Outside Boundary Condition
  ,                                       !- Outside Boundary Condition Object
  NoSun,                                  !- Sun Exposure
  NoWind,                                 !- Wind Exposure
  ,                                       !- View Factor to Ground
  ,                                       !- Number of Vertices
  9.6, 4.5, 0.55,                         !- X,Y,Z Vertex 1 {m}
  9.6, 4.5, 0,                            !- X,Y,Z Vertex 2 {m}
  5.8, 4.5, 0,                            !- X,Y,Z Vertex 3 {m}
  5.8, 4.5, 0.55;                         !- X,Y,Z Vertex 4 {m}

BuildingSurface:Detailed,
  Floor on Fill W,                        !- Name
  Floor,                                  !- Surface Type
  BG2 - Floor on Fill,                    !- Construction Name
  TZ_BG2,                                 !- Zone Name
  ,                                       !- Space Name
  Ground,                                 !- Outside Boundary Condition
  ,                                       !- Outside Boundary Condition Object
  NoSun,                                  !- Sun Exposure
  NoWind,                                 !- Wind Exposure
  ,                                       !- View Factor to Ground
  ,                                       !- Number of Vertices
  0, 4.5, 0.55,                           !- X,Y,Z Vertex 1 {m}
  0, 11, 0.55,                            !- X,Y,Z Vertex 2 {m}
  9.6, 11, 0.55,                          !- X,Y,Z Vertex 3 {m}
  9.6, 4.5, 0.55;                         !- X,Y,Z Vertex 4 {m}

BuildingSurface:Detailed,
  North Wall 1b,                          !- Name
  Wall,                                   !- Surface Type
  BG2 - Party Wall,                       !- Construction Name
  TZ_BG2,                                 !- Zone Name
  ,                                       !- Space Name
  Adiabatic,                              !- Outside Boundary Condition
  ,                                       !- Outside Boundary Condition Object
  NoSun,                                  !- Sun Exposure
  NoWind,                                 !- Wind Exposure
  ,                                       !- View Factor to Ground
  ,                                       !- Number of Vertices
  9.6, 11, 3.25,                          !- X,Y,Z Vertex 1 {m}
  9.6, 4.5, 3.25,                         !- X,Y,Z Vertex 2 {m}
  9.6, 4.5, 0.55,                         !- X,Y,Z Vertex 3 {m}
  9.6, 11, 0.55;                          !- X,Y,Z Vertex 4 {m}

BuildingSurface:Detailed,
  South Wall 1a,                          !- Name
  Wall,                                   !- Surface Type
  BG2 - Party Wall,                       !- Construction Name
  TZ_BG2,                                 !- Zone Name
  ,                                       !- Space Name
  Adiabatic,                              !- Outside Boundary Condition
  ,                                       !- Outside Boundary Condition Object
  NoSun,                                  !- Sun Exposure
  NoWind,                                 !- Wind Exposure
  ,                                       !- View Factor to Ground
  ,                                       !- Number of Vertices
  0, 4.5, 3.25,                           !- X,Y,Z Vertex 1 {m}
  0, 11, 3.25,                            !- X,Y,Z Vertex 2 {m}
  0, 11, 0.55,                            !- X,Y,Z Vertex 3 {m}
  0, 4.5, 0.55;                           !- X,Y,Z Vertex 4 {m}

BuildingSurface:Detailed,
  West Wall 1,                            !- Name
  Wall,                                   !- Surface Type
  BG2 - Ext Wall,                         !- Construction Name
  TZ_BG2,                                 !- Zone Name
  ,                                       !- Space Name
  Outdoors,                               !- Outside Boundary Condition
  ,                                       !- Outside Boundary Condition Object
  SunExposed,                             !- Sun Exposure
  WindExposed,                            !- Wind Exposure
  ,                                       !- View Factor to Ground
  ,                                       !- Number of Vertices
  0, 11, 3.25,                            !- X,Y,Z Vertex 1 {m}
  9.6, 11, 3.25,                          !- X,Y,Z Vertex 2 {m}
  9.6, 11, 0.55,                          !- X,Y,Z Vertex 3 {m}
  0, 11, 0.55;                            !- X,Y,Z Vertex 4 {m}

FenestrationSurface:Detailed,
  D3,                                     !- Name
  GlassDoor,                              !- Surface Type
  BG2 - Window/GlassDoor,                 !- Construction Name
  West Wall 1,                            !- Building Surface Name
  ,                                       !- Outside Boundary Condition Object
  ,                                       !- View Factor to Ground
  ,                                       !- Frame and Divider Name
  ,                                       !- Multiplier
  ,                                       !- Number of Vertices
  7.6, 11, 2.51,                          !- X,Y,Z Vertex 1 {m}
  7.6, 11, 0.56,                          !- X,Y,Z Vertex 2 {m}
  6.7, 11, 0.56,                          !- X,Y,Z Vertex 3 {m}
  6.7, 11, 2.51;                          !- X,Y,Z Vertex 4 {m}

FenestrationSurface:Detailed,
  W12,                                    !- Name
  Window,                                 !- Surface Type
  BG2 - Window/GlassDoor,                 !- Construction Name
  West Wall 1,                            !- Building Surface Name
  ,                                       !- Outside Boundary Condition Object
  ,                                       !- View Factor to Ground
  ,                                       !- Frame and Divider Name
  ,                                       !- Multiplier
  ,                                       !- Number of Vertices
  9, 11, 2.9,                             !- X,Y,Z Vertex 1 {m}
  9, 11, 1.4,                             !- X,Y,Z Vertex 2 {m}
  7.6, 11, 1.4,                           !- X,Y,Z Vertex 3 {m}
  7.6, 11, 2.9;                           !- X,Y,Z Vertex 4 {m}

FenestrationSurface:Detailed,
  W13,                                    !- Name
  Window,                                 !- Surface Type
  BG2 - Window/GlassDoor,                 !- Construction Name
  West Wall 1,                            !- Building Surface Name
  ,                                       !- Outside Boundary Condition Object
  ,                                       !- View Factor to Ground
  ,                                       !- Frame and Divider Name
  ,                                       !- Multiplier
  ,                                       !- Number of Vertices
  7.6, 11, 2.91,                          !- X,Y,Z Vertex 1 {m}
  7.6, 11, 2.51,                          !- X,Y,Z Vertex 2 {m}
  6.7, 11, 2.51,                          !- X,Y,Z Vertex 3 {m}
  6.7, 11, 2.91;                          !- X,Y,Z Vertex 4 {m}

FenestrationSurface:Detailed,
  W14,                                    !- Name
  Window,                                 !- Surface Type
  BG2 - Window/GlassDoor,                 !- Construction Name
  West Wall 1,                            !- Building Surface Name
  ,                                       !- Outside Boundary Condition Object
  ,                                       !- View Factor to Ground
  ,                                       !- Frame and Divider Name
  ,                                       !- Multiplier
  ,                                       !- Number of Vertices
  6.25, 11, 2.9,                          !- X,Y,Z Vertex 1 {m}
  6.25, 11, 1.4,                          !- X,Y,Z Vertex 2 {m}
  4.95, 11, 1.4,                          !- X,Y,Z Vertex 3 {m}
  4.95, 11, 2.9;                          !- X,Y,Z Vertex 4 {m}

FenestrationSurface:Detailed,
  W15,                                    !- Name
  Window,                                 !- Surface Type
  BG2 - Window/GlassDoor,                 !- Construction Name
  West Wall 1,                            !- Building Surface Name
  ,                                       !- Outside Boundary Condition Object
  ,                                       !- View Factor to Ground
  ,                                       !- Frame and Divider Name
  ,                                       !- Multiplier
  ,                                       !- Number of Vertices
  4.95, 11, 2.9,                          !- X,Y,Z Vertex 1 {m}
  4.95, 11, 1.4,                          !- X,Y,Z Vertex 2 {m}
  4.65, 11, 1.4,                          !- X,Y,Z Vertex 3 {m}
  4.65, 11, 2.9;                          !- X,Y,Z Vertex 4 {m}

FenestrationSurface:Detailed,
  W16,                                    !- Name
  Window,                                 !- Surface Type
  BG2 - Window/GlassDoor,                 !- Construction Name
  West Wall 1,                            !- Building Surface Name
  ,                                       !- Outside Boundary Condition Object
  ,                                       !- View Factor to Ground
  ,                                       !- Frame and Divider Name
  ,                                       !- Multiplier
  ,                                       !- Number of Vertices
  4.2, 11, 2.9,                           !- X,Y,Z Vertex 1 {m}
  4.2, 11, 1.4,                           !- X,Y,Z Vertex 2 {m}
  2.9, 11, 1.4,                           !- X,Y,Z Vertex 3 {m}
  2.9, 11, 2.9;                           !- X,Y,Z Vertex 4 {m}

FenestrationSurface:Detailed,
  W17,                                    !- Name
  Window,                                 !- Surface Type
  BG2 - Window/GlassDoor,                 !- Construction Name
  West Wall 1,                            !- Building Surface Name
  ,                                       !- Outside Boundary Condition Object
  ,                                       !- View Factor to Ground
  ,                                       !- Frame and Divider Name
  ,                                       !- Multiplier
  ,                                       !- Number of Vertices
  2.9, 11, 2.9,                           !- X,Y,Z Vertex 1 {m}
  2.9, 11, 1.4,                           !- X,Y,Z Vertex 2 {m}
  2.6, 11, 1.4,                           !- X,Y,Z Vertex 3 {m}
  2.6, 11, 2.9;                           !- X,Y,Z Vertex 4 {m}

FenestrationSurface:Detailed,
  W18,                                    !- Name
  Window,                                 !- Surface Type
  BG2 - Window/GlassDoor,                 !- Construction Name
  West Wall 1,                            !- Building Surface Name
  ,                                       !- Outside Boundary Condition Object
  ,                                       !- View Factor to Ground
  ,                                       !- Frame and Divider Name
  ,                                       !- Multiplier
  ,                                       !- Number of Vertices
  2.15, 11, 2.9,                          !- X,Y,Z Vertex 1 {m}
  2.15, 11, 1.4,                          !- X,Y,Z Vertex 2 {m}
  0.850000000000001, 11, 1.4,             !- X,Y,Z Vertex 3 {m}
  0.850000000000001, 11, 2.9;             !- X,Y,Z Vertex 4 {m}

FenestrationSurface:Detailed,
  W19,                                    !- Name
  Window,                                 !- Surface Type
  BG2 - Window/GlassDoor,                 !- Construction Name
  West Wall 1,                            !- Building Surface Name
  ,                                       !- Outside Boundary Condition Object
  ,                                       !- View Factor to Ground
  ,                                       !- Frame and Divider Name
  ,                                       !- Multiplier
  ,                                       !- Number of Vertices
  0.850000000000001, 11, 2.9,             !- X,Y,Z Vertex 1 {m}
  0.850000000000001, 11, 1.4,             !- X,Y,Z Vertex 2 {m}
  0.550000000000001, 11, 1.4,             !- X,Y,Z Vertex 3 {m}
  0.550000000000001, 11, 2.9;             !- X,Y,Z Vertex 4 {m}

BuildingSurface:Detailed,
  East Wall 2,                            !- Name
  Wall,                                   !- Surface Type
  BG2 - Ext Wall,                         !- Construction Name
  TZ_BG2,                                 !- Zone Name
  ,                                       !- Space Name
  Outdoors,                               !- Outside Boundary Condition
  ,                                       !- Outside Boundary Condition Object
  SunExposed,                             !- Sun Exposure
  WindExposed,                            !- Wind Exposure
  ,                                       !- View Factor to Ground
  ,                                       !- Number of Vertices
  9.6, 0, 5.2,                            !- X,Y,Z Vertex 1 {m}
  0, 0, 5.2,                              !- X,Y,Z Vertex 2 {m}
  0, 0, 2.35,                             !- X,Y,Z Vertex 3 {m}
  9.6, 0, 2.35;                           !- X,Y,Z Vertex 4 {m}

FenestrationSurface:Detailed,
  D2,                                     !- Name