
Version,
  25.2;                                   !- Version Identifier

Timestep,
  6;                                      !- Number of Timesteps per Hour

RunPeriod,
  Run Period 1,                           !- Name
  4,                                      !- Begin Month
  1,                                      !- Begin Day of Month
  2024,                                   !- Begin Year
  4,                                      !- End Month
  1,                                      !- End Day of Month
  2025,                                   !- End Year
  Monday,                                 !- Day of Week for Start Day
  No,                                     !- Use Weather File Holidays and Special Days
  No,                                     !- Use Weather File Daylight Saving Period
  No,                                     !- Apply Weekend Holiday Rule
  Yes,                                    !- Use Weather File Rain Indicators
  Yes;                                    !- Use Weather File Snow Indicators

Site:Location,
  REYKJAVIK,                              !- Name
  64.13,                                  !- Latitude {deg}
  -21.9,                                  !- Longitude {deg}
  0,                                      !- Time Zone {hr}
  104;                                    !- Elevation {m}

Site:GroundTemperature:BuildingSurface,
  3.0,    !- January Ground Temperature {C}
  2.6,    !- February
  2.4,    !- March
  2.2,    !- April
  3.5,    !- May
  5.8,    !- June
  8.4,    !- July
  10.2,   !- August
  10.6,   !- September
  10.0,   !- October
  7.6,    !- November
  5.0;    !- December

SimulationControl,
  No,                                     !- Do Zone Sizing Calculation
  No,                                     !- Do System Sizing Calculation
  No,                                     !- Do Plant Sizing Calculation
  No,                                     !- Run Simulation for Sizing Periods
  Yes,                                    !- Run Simulation for Weather File Run Periods
  ,                                       !- Do HVAC Sizing Simulation for Sizing Periods
  ;                                       !- Maximum Number of HVAC Sizing Simulation Passes

HeatBalanceAlgorithm,
  ConductionTransferFunction,             !- Algorithm
  200;                                    !- Surface Temperature Upper Limit {C}

ConvergenceLimits,
  1;                                      !- Minimum System Timestep {minutes}

ShadowCalculation,
  PolygonClipping,                        !- Shading Calculation Method
  Periodic,                               !- Shading Calculation Update Frequency Method
  20,                                     !- Shading Calculation Update Frequency
  15000,                                  !- Maximum Figures in Shadow Overlap Calculations
  SutherlandHodgman,                      !- Polygon Clipping Algorithm
  512,                                    !- Pixel Counting Resolution
  SimpleSkyDiffuseModeling,               !- Sky Diffuse Modeling Algorithm
  No,                                     !- Output External Shading Calculation Results
  No,                                     !- Disable Self-Shading Within Shading Zone Groups
  No;                                     !- Disable Self-Shading From Shading Zone Groups to Other Zones

Sizing:Parameters,
  1.25,                                   !- Heating Sizing Factor
  1.15;                                   !- Cooling Sizing Factor

GlobalGeometryRules,
  UpperLeftCorner,                        !- Starting Vertex Position
  Counterclockwise,                       !- Vertex Entry Direction
  Relative,                               !- Coordinate System
  Relative,                               !- Daylighting Reference Point Coordinate System
  Relative;                               !- Rectangular Surface Coordinate System

Building,
  BG4,                                    !- Name
  3,                                      !- North Axis {deg}
  Country,                                !- Terrain
  ,                                       !- Loads Convergence Tolerance Value {W}
  ,                                       !- Temperature Convergence Tolerance Value {deltaC}
  FullExterior,                           !- Solar Distribution: FullExterior accounts for shading objects
  ,                                       !- Maximum Number of Warmup Days
  ;                                       !- Minimum Number of Warmup Days

Zone,
  TZ_BG4,                                 !- Name
  ,                                       !- Direction of Relative North {deg}
  0,                                      !- X Origin {m}
  0,                                      !- Y Origin {m}
  0,                                      !- Z Origin {m}
  ,                                       !- Type
  1,                                      !- Multiplier
  ,                                       !- Ceiling Height {m}
  229.50,                                 !- Volume {m3}
  85.00,                                  !- Floor Area {m2}
  ,                                       !- Zone Inside Convection Algorithm
  ,                                       !- Zone Outside Convection Algorithm
  Yes;                                    !- Part of Total Floor Area

BuildingSurface:Detailed,
  Ground Floor,                           !- Name
  Floor,                                  !- Surface Type
  BG4 - Floor on Fill,                    !- Construction Name
  TZ_BG4,                                 !- Zone Name
  ,                                       !- Space Name
  Ground,                                 !- Outside Boundary Condition
  ,                                       !- Outside Boundary Condition Object
  NoSun,                                  !- Sun Exposure
  NoWind,                                 !- Wind Exposure
  ,                                       !- View Factor to Ground
  8,                                      !- Number of Vertices
  0,   10, 0,                             !- X,Y,Z Vertex 1 {m}
  5.6, 10, 0,                             !- X,Y,Z Vertex 2 {m}
  5.6, 9,  0,                             !- X,Y,Z Vertex 3 {m}
  9.4, 9,  0,                             !- X,Y,Z Vertex 4 {m}
  9.4, 0,  0,                             !- X,Y,Z Vertex 5 {m}
  5.2, 0,  0,                             !- X,Y,Z Vertex 6 {m}
  5.2, 1,  0,                             !- X,Y,Z Vertex 7 {m}
  0,   1,  0;                             !- X,Y,Z Vertex 8 {m}

BuildingSurface:Detailed,
  RoofCeiling,                            !- Name
  Roof,                                   !- Surface Type
  BG4 - RoofCeiling,                      !- Construction Name
  TZ_BG4,                                 !- Zone Name
  ,                                       !- Space Name
  Outdoors,                               !- Outside Boundary Condition
  ,                                       !- Outside Boundary Condition Object
  SunExposed,                             !- Sun Exposure
  WindExposed,                            !- Wind Exposure
  ,                                       !- View Factor to Ground
  8,                                      !- Number of Vertices
  0,   1,  2.7,                           !- X,Y,Z Vertex 1 {m}
  5.2, 1,  2.7,                           !- X,Y,Z Vertex 2 {m}
  5.2, 0,  2.7,                           !- X,Y,Z Vertex 3 {m}
  9.4, 0,  2.7,                           !- X,Y,Z Vertex 4 {m}
  9.4, 9,  2.7,                           !- X,Y,Z Vertex 5 {m}
  5.6, 9,  2.7,                           !- X,Y,Z Vertex 6 {m}
  5.6, 10, 2.7,                           !- X,Y,Z Vertex 7 {m}
  0,   10, 2.7;                           !- X,Y,Z Vertex 8 {m}

BuildingSurface:Detailed,
  North Wall,                             !- Name
  Wall,                                   !- Surface Type
  BG4 - Ext Wall,                         !- Construction Name
  TZ_BG4,                                 !- Zone Name
  ,                                       !- Space Name
  Outdoors,                               !- Outside Boundary Condition
  ,                                       !- Outside Boundary Condition Object
  SunExposed,                             !- Sun Exposure
  WindExposed,                            !- Wind Exposure
  ,                                       !- View Factor to Ground
  4,                                      !- Number of Vertices
  0, 10, 2.7,                             !- X,Y,Z Vertex 1 {m}
  5.6, 10, 2.7,                           !- X,Y,Z Vertex 2 {m}
  5.6, 10, 0,                             !- X,Y,Z Vertex 3 {m}
  0, 10, 0;                               !- X,Y,Z Vertex 4 {m}

BuildingSurface:Detailed,
  South Terrace (Side),                   !- Name
  Wall,                                   !- Surface Type
  BG4 - Ext Wall,                         !- Construction Name
  TZ_BG4,                                 !- Zone Name
  ,                                       !- Space Name
  Outdoors,                               !- Outside Boundary Condition
  ,                                       !- Outside Boundary Condition Object
  SunExposed,                             !- Sun Exposure
  WindExposed,                            !- Wind Exposure
  ,                                       !- View Factor to Ground
  4,                                      !- Number of Vertices
  5.2, 0, 2.7,                            !- X,Y,Z Vertex 1 {m}
  5.2, 1, 2.7,                            !- X,Y,Z Vertex 2 {m}
  5.2, 1, 0,                              !- X,Y,Z Vertex 3 {m}
  5.2, 0, 0;                              !- X,Y,Z Vertex 4 {m}

BuildingSurface:Detailed,
  North Terrace (Side),                   !- Name
  Wall,                                   !- Surface Type
  BG4 - Ext Wall,                         !- Construction Name
  TZ_BG4,                                 !- Zone Name
  ,                                       !- Space Name
  Outdoors,                               !- Outside Boundary Condition
  ,                                       !- Outside Boundary Condition Object
  SunExposed,                             !- Sun Exposure
  WindExposed,                            !- Wind Exposure
  ,                                       !- View Factor to Ground
  4,                                      !- Number of Vertices
  5.6, 10, 2.7,                           !- X,Y,Z Vertex 1 {m}
  5.6, 9, 2.7,                            !- X,Y,Z Vertex 2 {m}
  5.6, 9, 0,                              !- X,Y,Z Vertex 3 {m}
  5.6, 10, 0;                             !- X,Y,Z Vertex 4 {m}

BuildingSurface:Detailed,
  North Terrace,                          !- Name
  Wall,                                   !- Surface Type
  BG4 - Ext Wall,                         !- Construction Name
  TZ_BG4,                                 !- Zone Name
  ,                                       !- Space Name
  Outdoors,                               !- Outside Boundary Condition
  ,                                       !- Outside Boundary Condition Object
  SunExposed,                             !- Sun Exposure
  WindExposed,                            !- Wind Exposure
  ,                                       !- View Factor to Ground
  4,                                      !- Number of Vertices
  5.6, 9, 2.7,                            !- X,Y,Z Vertex 1 {m}
  9.4, 9, 2.7,                            !- X,Y,Z Vertex 2 {m}
  9.4, 9, 0,                              !- X,Y,Z Vertex 3 {m}
  5.6, 9, 0;                              !- X,Y,Z Vertex 4 {m}

BuildingSurface:Detailed,
  East Wall,                              !- Name
  Wall,                                   !- Surface Type
  BG4 - Party Wall,                       !- Construction Name
  TZ_BG4,                                 !- Zone Name
  ,                                       !- Space Name
  Adiabatic,                              !- Outside Boundary Condition
  ,                                       !- Outside Boundary Condition Object
  NoSun,                                  !- Sun Exposure
  NoWind,                                 !- Wind Exposure
  ,                                       !- View Factor to Ground
  4,                                      !- Number of Vertices
  9.4, 9, 2.7,                            !- X,Y,Z Vertex 1 {m} 
  9.4, 0, 2.7,                            !- X,Y,Z Vertex 2 {m}
  9.4, 0, 0,                              !- X,Y,Z Vertex 3 {m}
  9.4, 9, 0;                              !- X,Y,Z Vertex 4 {m}

BuildingSurface:Detailed,
  South Wall,                             !- Name
  Wall,                                   !- Surface Type
  BG4 - Ext Wall,                         !- Construction Name
  TZ_BG4,                                 !- Zone Name
  ,                                       !- Space Name
  Outdoors,                               !- Outside Boundary Condition
  ,                                       !- Outside Boundary Condition Object
  SunExposed,                             !- Sun Exposure
  WindExposed,                            !- Wind Exposure
  ,                                       !- View Factor to Ground
  4,                                      !- Number of Vertices
  9.4, 0, 2.7,                            !- X,Y,Z Vertex 1 {m}
  5.2, 0, 2.7,                            !- X,Y,Z Vertex 2 {m}
  5.2, 0, 0,                              !- X,Y,Z Vertex 3 {m}
  9.4, 0, 0;                              !- X,Y,Z Vertex 4 {m}

BuildingSurface:Detailed,
  South Terrace,                          !- Name
  Wall,                                   !- Surface Type
  BG4 - Ext Wall,                         !- Construction Name
  TZ_BG4,                                 !- Zone Name
  ,                                       !- Space Name
  Outdoors,                               !- Outside Boundary Condition
  ,                                       !- Outside Boundary Condition Object
  SunExposed,                             !- Sun Exposure
  WindExposed,                            !- Wind Exposure
  ,                                       !- View Factor to Ground
  4,                                      !- Number of Vertices
  5.2, 1, 2.7,                            !- X,Y,Z Vertex 1 {m}
  0, 1, 2.7,                              !- X,Y,Z Vertex 2 {m}
  0, 1, 0,                                !- X,Y,Z Vertex 3 {m}
  5.2, 1, 0;                              !- X,Y,Z Vertex 4 {m}

BuildingSurface:Detailed,
  West Wall,                              !- Name
  Wall,                                   !- Surface Type
  BG4 - Party Wall,                       !- Construction Name
  TZ_BG4,                                 !- Zone Name
  ,                                       !- Space Name
  Adiabatic,                              !- Outside Boundary Condition
  ,                                       !- Outside Boundary Condition Object
  NoSun,                                  !- Sun Exposure
  NoWind,                                 !- Wind Exposure
  ,                                       !- View Factor to Ground
  4,                                      !- Number of Vertices
  0, 1, 2.7,                              !- X,Y,Z Vertex 1 {m}
  0, 10, 2.7,                             !- X,Y,Z Vertex 2 {m}
  0, 10, 0,                               !- X,Y,Z Vertex 3 {m}
  0, 1, 0;                                !- X,Y,Z Vertex 4 {m}

FenestrationSurface:Detailed,
  Window 1 Fixed (Bottom),                !- Name
  Window,                                 !- Surface Type
  BG4 - Window/GlassDoor,                 !- Construction Name
  South Terrace,                          !- Building Surface Name
  ,                                       !- Outside Boundary Condition Object
  ,                                       !- View Factor to Ground
  ,                                       !- Frame and Divider Name
  ,                                       !- Multiplier
  4,                                      !- Number of Vertices
  0.005, 1, 1.61,                         !- X,Y,Z Vertex 1 {m}
  0.005, 1, 0.13,                         !- X,Y,Z Vertex 2 {m}
  1.295, 1, 0.13,                         !- X,Y,Z Vertex 3 {m}
  1.295, 1, 1.61;                         !- X,Y,Z Vertex 4 {m}

FenestrationSurface:Detailed,
  Window 1 Fixed (Top),                   !- Name
  Window,                                 !- Surface Type
  BG4 - Window/GlassDoor,                 !- Construction Name
  South Terrace,                          !- Building Surface Name
  ,                                       !- Outside Boundary Condition Object
  ,                                       !- View Factor to Ground
  ,                                       !- Frame and Divider Name
  ,                                       !- Multiplier
  4,                                      !- Number of Vertices
  0.00750000000000001, 1, 2.31,           !- X,Y,Z Vertex 1 {m}
  0.00750000000000001, 1, 1.61,           !- X,Y,Z Vertex 2 {m}
  0.6525, 1, 1.61,                        !- X,Y,Z Vertex 3 {m}
  0.6525, 1, 2.31;                        !- X,Y,Z Vertex 4 {m}

FenestrationSurface:Detailed,
  Window 1 Operable,                      !- Name
  Window,                                 !- Surface Type
  BG4 - Window/GlassDoor,                 !- Construction Name
  South Terrace,                          !- Building Surface Name
  ,                                       !- Outside Boundary Condition Object
  ,                                       !- View Factor to Ground
  ,                                       !- Frame and Divider Name
  ,                                       !- Multiplier
  4,                                      !- Number of Vertices
  0.6575, 1, 2.31,                        !- X,Y,Z Vertex 1 {m}
  0.6575, 1, 1.61,                        !- X,Y,Z Vertex 2 {m}
  1.3025, 1, 1.61,                        !- X,Y,Z Vertex 3 {m}
  1.3025, 1, 2.31;                        !- X,Y,Z Vertex 4 {m}

FenestrationSurface:Detailed,
  Window 2,                               !- Name
  Window,                                 !- Surface Type
  BG4 - Window/GlassDoor,                 !- Construction Name
  South Terrace,                          !- Building Surface Name
  ,                                       !- Outside Boundary Condition Object
  ,                                       !- View Factor to Ground
  ,                                       !- Frame and Divider Name
  ,                                       !- Multiplier
  4,                                      !- Number of Vertices
  2.29, 1, 2.31,                          !- X,Y,Z Vertex 1 {m}
  2.29, 1, 0.13,                          !- X,Y,Z Vertex 2 {m}
  4.83, 1, 0.13,                          !- X,Y,Z Vertex 3 {m}
  4.83, 1, 2.31;                          !- X,Y,Z Vertex 4 {m}

FenestrationSurface:Detailed,
  Window 3 Fixed (Bottom),                !- Name
  Window,                                 !- Surface Type
  BG4 - Window/GlassDoor,                 !- Construction Name
  South Wall,                             !- Building Surface Name
  ,                                       !- Outside Boundary Condition Object
  ,                                       !- View Factor to Ground
  ,                                       !- Frame and Divider Name
  ,                                       !- Multiplier
  4,                                      !- Number of Vertices
  6.38, 0, 1.383,                         !- X,Y,Z Vertex 1 {m}
  6.38, 0, 0.59,                          !- X,Y,Z Vertex 2 {m}
  7.82, 0, 0.59,                          !- X,Y,Z Vertex 3 {m}
  7.82, 0, 1.383;                         !- X,Y,Z Vertex 4 {m}

FenestrationSurface:Detailed,
  Window 3 Fixed (Top),                   !- Name
  Window,                                 !- Surface Type
  BG4 - Window/GlassDoor,                 !- Construction Name
  South Wall,                             !- Building Surface Name
  ,                                       !- Outside Boundary Condition Object
  ,                                       !- View Factor to Ground
  ,                                       !- Frame and Divider Name
  ,                                       !- Multiplier
  4,                                      !- Number of Vertices
  6.38, 0, 2.176,                         !- X,Y,Z Vertex 1 {m}
  6.38, 0, 1.383,                         !- X,Y,Z Vertex 2 {m}
  7.1, 0, 1.383,                          !- X,Y,Z Vertex 3 {m}
  7.1, 0, 2.176;                          !- X,Y,Z Vertex 4 {m}

FenestrationSurface:Detailed,
  Window 3 Operable,                      !- Name
  Window,                                 !- Surface Type
  BG4 - Window/GlassDoor,                 !- Construction Name
  South Wall,                             !- Building Surface Name
  ,                                       !- Outside Boundary Condition Object
  ,                                       !- View Factor to Ground
  ,                                       !- Frame and Divider Name
  ,                                       !- Multiplier
  4,                                      !- Number of Vertices
  7.1, 0, 2.176,                          !- X,Y,Z Vertex 1 {m}
  7.1, 0, 1.383,                          !- X,Y,Z Vertex 2 {m}
  7.82, 0, 1.383,                         !- X,Y,Z Vertex 3 {m}
  7.82, 0, 2.176;                         !- X,Y,Z Vertex 4 {m}

FenestrationSurface:Detailed,
  Window 4 Fixed (Bottom),                !- Name
  Window,                                 !- Surface Type
  BG4 - Window/GlassDoor,                 !- Construction Name
  North Wall,                             !- Building Surface Name
  ,                                       !- Outside Boundary Condition Object
  ,                                       !- View Factor to Ground
  ,                                       !- Frame and Divider Name
  ,                                       !- Multiplier
  4,                                      !- Number of Vertices
  1.935, 9.6, 1.595,                      !- X,Y,Z Vertex 1 {m}
  1.935, 9.6, 0.97,                       !- X,Y,Z Vertex 2 {m}
  0.685, 9.6, 0.97,                       !- X,Y,Z Vertex 3 {m}
  0.685, 9.6, 1.595;                      !- X,Y,Z Vertex 4 {m}

FenestrationSurface:Detailed,
  Window 4 Fixed (Top),                   !- Name
  Window,                                 !- Surface Type
  BG4 - Window/GlassDoor,                 !- Construction Name
  North Wall,                             !- Building Surface Name
  ,                                       !- Outside Boundary Condition Object
  ,                                       !- View Factor to Ground
  ,                                       !- Frame and Divider Name
  ,                                       !- Multiplier
  4,                                      !- Number of Vertices
  1.9325, 9.6, 2.22,                      !- X,Y,Z Vertex 1 {m}
  1.9325, 9.6, 1.595,                     !- X,Y,Z Vertex 2 {m}
  1.3075, 9.6, 1.595,                     !- X,Y,Z Vertex 3 {m}
  1.3075, 9.6, 2.22;                      !- X,Y,Z Vertex 4 {m}

FenestrationSurface:Detailed,
  Window 4 Operable,                      !- Name
  Window,                                 !- Surface Type
  BG4 - Window/GlassDoor,                 !- Construction Name
  North Wall,                             !- Building Surface Name
  ,                                       !- Outside Boundary Condition Object
  ,                                       !- View Factor to Ground
  ,                                       !- Frame and Divider Name
  ,                                       !- Multiplier
  4,                                      !- Number of Vertices
  1.3025, 9.6, 2.22,                      !- X,Y,Z Vertex 1 {m}
  1.3025, 9.6, 1.595,                     !- X,Y,Z Vertex 2 {m}
  0.6775, 9.6, 1.595,                     !- X,Y,Z Vertex 3 {m}
  0.6775, 9.6, 2.22;                      !- X,Y,Z Vertex 4 {m}

FenestrationSurface:Detailed,
  Window 5 Fixed (Bottom),                !- Name
  Window,                                 !- Surface Type
  BG4 - Window/GlassDoor,                 !- Construction Name
  North Wall,                             !- Building Surface Name
  ,                                       !- Outside Boundary Condition Object
  ,                                       !- View Factor to Ground
  ,                                       !- Frame and Divider Name
  ,                                       !- Multiplier
  4,                                      !- Number of Vertices
  4.6, 9.6, 1.55,                         !- X,Y,Z Vertex 1 {m}
  4.6, 9.6, 0.85,                         !- X,Y,Z Vertex 2 {m}
  3.2, 9.6, 0.85,                         !- X,Y,Z Vertex 3 {m}
  3.2, 9.6, 1.55;                         !- X,Y,Z Vertex 4 {m}

FenestrationSurface:Detailed,
  Window 5 Fixed (Top),                   !- Name
  Window,                                 !- Surface Type
  BG4 - Window/GlassDoor,                 !- Construction Name
  North Wall,                             !- Building Surface Name
  ,                                       !- Outside Boundary Condition Object
  ,                                       !- View Factor to Ground
  ,                                       !- Frame and Divider Name
  ,                                       !- Multiplier
  4,                                      !- Number of Vertices
  3.9, 9.6, 2.25,                         !- X,Y,Z Vertex 1 {m}
  3.9, 9.6, 1.55,                         !- X,Y,Z Vertex 2 {m}
  3.2, 9.6, 1.55,                         !- X,Y,Z Vertex 3 {m}
  3.2, 9.6, 2.25;                         !- X,Y,Z Vertex 4 {m}

FenestrationSurface:Detailed,
  Window 5 Operable,                      !- Name
  Window,                                 !- Surface Type
  BG4 - Window/GlassDoor,                 !- Construction Name
  North Wall,                             !- Building Surface Name
  ,                                       !- Outside Boundary Condition Object
  ,                                       !- View Factor to Ground
  ,                                       !- Frame and Divider Name
  ,                                       !- Multiplier
  4,                                      !- Number of Vertices
  4.6, 9.6, 2.25,                         !- X,Y,Z Vertex 1 {m}
  4.6, 9.6, 1.55,                         !- X,Y,Z Vertex 2 {m}
  3.9, 9.6, 1.55,                         !- X,Y,Z Vertex 3 {m}
  3.9, 9.6, 2.25;                         !- X,Y,Z Vertex 4 {m}

FenestrationSurface:Detailed,
  Window 6,                               !- Name
  Window,                                 !- Surface Type
  BG4 - Window/GlassDoor,                 !- Construction Name
  North Terrace,                          !- Building Surface Name
  ,                                       !- Outside Boundary Condition Object
  ,                                       !- View Factor to Ground
  ,                                       !- Frame and Divider Name
  ,                                       !- Multiplier
  4,                                      !- Number of Vertices
  6.27, 9, 2.16,                          !- X,Y,Z Vertex 1 {m}
  6.27, 9, 0.13,                          !- X,Y,Z Vertex 2 {m}
  5.85, 9, 0.13,                          !- X,Y,Z Vertex 3 {m}
  5.85, 9, 2.16;                          !- X,Y,Z Vertex 4 {m}

FenestrationSurface:Detailed,
  Window 7,                               !- Name
  Window,                                 !- Surface Type
  BG4 - Window/GlassDoor,                 !- Construction Name
  North Terrace,                          !- Building Surface Name
  ,                                       !- Outside Boundary Condition Object
  ,                                       !- View Factor to Ground
  ,                                       !- Frame and Divider Name
  ,                                       !- Multiplier
  4,                                      !- Number of Vertices
  8.405, 9, 1.88,                         !- X,Y,Z Vertex 1 {m}
  8.405, 9, 1.37,                         !- X,Y,Z Vertex 2 {m}
  7.895, 9, 1.37,                         !- X,Y,Z Vertex 3 {m}
  7.895, 9, 1.88;                         !- X,Y,Z Vertex 4 {m}

FenestrationSurface:Detailed,
  Front Door,                             !- Name
  Door,                                   !- Surface Type
  BG4 - Ext Door,                         !- Construction Name
  North Terrace,                          !- Building Surface Name
  ,                                       !- Outside Boundary Condition Object
  ,                                       !- View Factor to Ground
  ,                                       !- Frame and Divider Name
  ,                                       !- Multiplier
  4,                                      !- Number of Vertices
  7.195, 9, 2.25,                         !- X,Y,Z Vertex 1 {m}
  7.195, 9, 0.01,                         !- X,Y,Z Vertex 2 {m}
  6.305, 9, 0.01,                         !- X,Y,Z Vertex 3 {m}
  6.305, 9, 2.25;                         !- X,Y,Z Vertex 4 {m}

FenestrationSurface:Detailed,
  Terrace Door,                           !- Name
  GlassDoor,                              !- Surface Type
  BG4 - Window/GlassDoor,                 !- Construction Name
  South Terrace,                          !- Building Surface Name
  ,                                       !- Outside Boundary Condition Object
  ,                                       !- View Factor to Ground
  ,                                       !- Frame and Divider Name
  ,                                       !- Multiplier
  4,                                      !- Number of Vertices
  1.3, 1, 2.04,                           !- X,Y,Z Vertex 1 {m}
  1.3, 1, 0.01,                           !- X,Y,Z Vertex 2 {m}