
Version,
  25.2;                                   !- Version Identifier

Timestep,
  6;                                      !- Number of Timesteps per Hour

RunPeriod,
  Run Period 1,                           !- Name
  4,                                      !- Begin Month
  1,                                      !- Begin Day of Month
  2024,                                   !- Begin Year
  4,                                      !- End Month
  1,                                      !- End Day of Month
  2025,                                   !- End Year
  Monday,                                 !- Day of Week for Start Day
  No,                                     !- Use Weather File Holidays and Special Days
  No,                                     !- Use Weather File Daylight Saving Period
  No,                                     !- Apply Weekend Holiday Rule
  Yes,                                    !- Use Weather File Rain Indicators
  Yes;                                    !- Use Weather File Snow Indicators

Site:Location,
  REYKJAVIK,                              !- Name
  64.13,                                  !- Latitude {deg}
  -21.9,                                  !- Longitude {deg}
  0,                                      !- Time Zone {hr}
  43;                                     !- Elevation {m}

Site:GroundTemperature:BuildingSurface,
  3.0,    !- January Ground Temperature {C}
  2.6,    !- February
  2.4,    !- March
  2.2,    !- April
  3.5,    !- May
  5.8,    !- June
  8.4,    !- July
  10.2,   !- August
  10.6,   !- September
  10.0,   !- October
  7.6,    !- November
  5.0;    !- December

SimulationControl,
  No,                                     !- Do Zone Sizing Calculation
  No,                                     !- Do System Sizing Calculation
  No,                                     !- Do Plant Sizing Calculation
  No,                                     !- Run Simulation for Sizing Periods
  Yes,                                    !- Run Simulation for Weather File Run Periods
  ,                                       !- Do HVAC Sizing Simulation for Sizing Periods
  ;                                       !- Maximum Number of HVAC Sizing Simulation Passes

HeatBalanceAlgorithm,
  ConductionTransferFunction,             !- Algorithm
  200;                                    !- Surface Temperature Upper Limit {C}

ConvergenceLimits,
  1;                                      !- Minimum System Timestep {minutes}

Building,
  BG1,                                    !- Name
  -147.19,                                !- North Axis {deg}
  City,                                   !- Terrain
  ,                                       !- Loads Convergence Tolerance Value {W}
  ,                                       !- Temperature Convergence Tolerance Value {deltaC}
  FullExterior,                           !- Solar Distribution: FullExterior accounts for shading objects
  ,                                       !- Maximum Number of Warmup Days
  ;                                       !- Minimum Number of Warmup Days

Zone,
  TZ_BG1,                                 !- Name
  ,                                       !- Direction of Relative North {deg}
  0,                                      !- X Origin {m}
  0,                                      !- Y Origin {m}
  0,                                      !- Z Origin {m}
  ,                                       !- Type
  1,                                      !- Multiplier
  ,                                       !- Ceiling Height {m}
  404.82,                                 !- Volume {m3}
  166.16,                                 !- Floor Area {m2}
  ,                                       !- Zone Inside Convection Algorithm
  ,                                       !- Zone Outside Convection Algorithm
  Yes;                                    !- Part of Total Floor Area

BuildingSurface:Detailed,
  East Wall 0a,                           !- Name
  Wall,                                   !- Surface Type
  BG1 - Ext Wall (Concrete),              !- Construction Name
  TZ_BG1,                                 !- Zone Name
  ,                                       !- Space Name
  Outdoors,                               !- Outside Boundary Condition
  ,                                       !- Outside Boundary Condition Object
  SunExposed,                             !- Sun Exposure
  WindExposed,                            !- Wind Exposure
  ,                                       !- View Factor to Ground
  ,                                       !- Number of Vertices
  2.47, 2.1, 2.3,                         !- X,Y,Z Vertex 1 {m}
  0, 2.1, 2.3,                            !- X,Y,Z Vertex 2 {m}
  0, 2.1, 0,                              !- X,Y,Z Vertex 3 {m}
  2.47, 2.1, 0;                           !- X,Y,Z Vertex 4 {m}

FenestrationSurface:Detailed,
  D1,                                     !- Name
  Door,                                   !- Surface Type
  BG1 - Ext Door,                         !- Construction Name
  East Wall 0a,                           !- Building Surface Name
  ,                                       !- Outside Boundary Condition Object
  ,                                       !- View Factor to Ground
  ,                                       !- Frame and Divider Name
  ,                                       !- Multiplier
  ,                                       !- Number of Vertices
  0.25, 2.1, 2.11,                        !- X,Y,Z Vertex 1 {m}
  0.25, 2.1, 0.01,                        !- X,Y,Z Vertex 2 {m}
  1.15, 2.1, 0.01,                        !- X,Y,Z Vertex 3 {m}
  1.15, 2.1, 2.11;                        !- X,Y,Z Vertex 4 {m}

FenestrationSurface:Detailed,
  W5,                                     !- Name
  Window,                                 !- Surface Type
  BG1 - Window/GlassDoor,                 !- Construction Name
  East Wall 0a,                           !- Building Surface Name
  ,                                       !- Outside Boundary Condition Object
  ,                                       !- View Factor to Ground
  ,                                       !- Frame and Divider Name
  ,                                       !- Multiplier
  ,                                       !- Number of Vertices
  1.15, 2.1, 2.1,                         !- X,Y,Z Vertex 1 {m}
  1.15, 2.1, 1.4,                         !- X,Y,Z Vertex 2 {m}
  2.05, 2.1, 1.4,                         !- X,Y,Z Vertex 3 {m}
  2.05, 2.1, 2.1;                         !- X,Y,Z Vertex 4 {m}

BuildingSurface:Detailed,
  East Wall 0b,                           !- Name
  Wall,                                   !- Surface Type
  BG1 - Ext Wall (Concrete),              !- Construction Name
  TZ_BG1,                                 !- Zone Name
  ,                                       !- Space Name
  Ground,                                 !- Outside Boundary Condition
  ,                                       !- Outside Boundary Condition Object
  NoSun,                                  !- Sun Exposure
  NoWind,                                 !- Wind Exposure
  ,                                       !- View Factor to Ground
  ,                                       !- Number of Vertices
  2.47, 0, 2.3,                           !- X,Y,Z Vertex 1 {m}
  2.47, 2.1, 2.3,                         !- X,Y,Z Vertex 2 {m}
  2.47, 2.1, 0,                           !- X,Y,Z Vertex 3 {m}
  2.47, 0, 0;                             !- X,Y,Z Vertex 4 {m}

BuildingSurface:Detailed,
  East Wall 0c,                           !- Name
  Wall,                                   !- Surface Type
  BG1 - Ext Wall (Concrete),              !- Construction Name
  TZ_BG1,                                 !- Zone Name
  ,                                       !- Space Name
  Ground,                                 !- Outside Boundary Condition
  ,                                       !- Outside Boundary Condition Object
  NoSun,                                  !- Sun Exposure
  NoWind,                                 !- Wind Exposure
  ,                                       !- View Factor to Ground
  ,                                       !- Number of Vertices
  3.93, 0, 2.3,                           !- X,Y,Z Vertex 1 {m}
  2.47, 0, 2.3,                           !- X,Y,Z Vertex 2 {m}
  2.47, 0, 0,                             !- X,Y,Z Vertex 3 {m}
  3.93, 0, 0;                             !- X,Y,Z Vertex 4 {m}

BuildingSurface:Detailed,
  East Wall 0d,                           !- Name
  Wall,                                   !- Surface Type
  BG1 - Ext Wall (Concrete),              !- Construction Name
  TZ_BG1,                                 !- Zone Name
  ,                                       !- Space Name
  Ground,                                 !- Outside Boundary Condition
  ,                                       !- Outside Boundary Condition Object
  NoSun,                                  !- Sun Exposure
  NoWind,                                 !- Wind Exposure
  ,                                       !- View Factor to Ground
  ,                                       !- Number of Vertices
  3.93, 2, 2.3,                           !- X,Y,Z Vertex 1 {m}
  3.93, 0, 2.3,                           !- X,Y,Z Vertex 2 {m}
  3.93, 0, 0,                             !- X,Y,Z Vertex 3 {m}
  3.93, 2, 0;                             !- X,Y,Z Vertex 4 {m}

BuildingSurface:Detailed,
  East Wall 0e,                           !- Name
  Wall,                                   !- Surface Type
  BG1 - Ext Wall (Concrete),              !- Construction Name
  TZ_BG1,                                 !- Zone Name
  ,                                       !- Space Name
  Outdoors,                               !- Outside Boundary Condition
  ,                                       !- Outside Boundary Condition Object
  SunExposed,                             !- Sun Exposure
  WindExposed,                            !- Wind Exposure
  ,                                       !- View Factor to Ground
  ,                                       !- Number of Vertices
  7.69, 2.1, 2.3,                         !- X,Y,Z Vertex 1 {m}
  3.93, 2.1, 2.3,                         !- X,Y,Z Vertex 2 {m}
  3.93, 2.1, 0,                           !- X,Y,Z Vertex 3 {m}
  7.69, 2.1, 0;                           !- X,Y,Z Vertex 4 {m}

FenestrationSurface:Detailed,
  W6,                                     !- Name
  Window,                                 !- Surface Type
  BG1 - Window/GlassDoor,                 !- Construction Name
  East Wall 0e,                           !- Building Surface Name
  ,                                       !- Outside Boundary Condition Object
  ,                                       !- View Factor to Ground
  ,                                       !- Frame and Divider Name
  ,                                       !- Multiplier
  ,                                       !- Number of Vertices
  4.68, 2.1, 2.1,                         !- X,Y,Z Vertex 1 {m}
  4.68, 2.1, 1.4,                         !- X,Y,Z Vertex 2 {m}
  5.18, 2.1, 1.4,                         !- X,Y,Z Vertex 3 {m}
  5.18, 2.1, 2.1;                         !- X,Y,Z Vertex 4 {m}

FenestrationSurface:Detailed,
  W7,                                     !- Name
  Window,                                 !- Surface Type
  BG1 - Window/GlassDoor,                 !- Construction Name
  East Wall 0e,                           !- Building Surface Name
  ,                                       !- Outside Boundary Condition Object
  ,                                       !- View Factor to Ground
  ,                                       !- Frame and Divider Name
  ,                                       !- Multiplier
  ,                                       !- Number of Vertices
  5.18, 2.1, 2.1,                         !- X,Y,Z Vertex 1 {m}
  5.18, 2.1, 1.4,                         !- X,Y,Z Vertex 2 {m}
  5.68, 2.1, 1.4,                         !- X,Y,Z Vertex 3 {m}
  5.68, 2.1, 2.1;                         !- X,Y,Z Vertex 4 {m}

FenestrationSurface:Detailed,
  W8,                                     !- Name
  Window,                                 !- Surface Type
  BG1 - Window/GlassDoor,                 !- Construction Name
  East Wall 0e,                           !- Building Surface Name
  ,                                       !- Outside Boundary Condition Object
  ,                                       !- View Factor to Ground
  ,                                       !- Frame and Divider Name
  ,                                       !- Multiplier
  ,                                       !- Number of Vertices
  6.18, 2.1, 2.1,                         !- X,Y,Z Vertex 1 {m}
  6.18, 2.1, 1.4,                         !- X,Y,Z Vertex 2 {m}
  7.18, 2.1, 1.4,                         !- X,Y,Z Vertex 3 {m}
  7.18, 2.1, 2.1;                         !- X,Y,Z Vertex 4 {m}

BuildingSurface:Detailed,
  Floor 0,                                !- Name
  Floor,                                  !- Surface Type
  BG1 - Floor on Fill,                    !- Construction Name
  TZ_BG1,                                 !- Zone Name
  ,                                       !- Space Name
  Ground,                                 !- Outside Boundary Condition
  ,                                       !- Outside Boundary Condition Object
  NoSun,                                  !- Sun Exposure
  NoWind,                                 !- Wind Exposure
  ,                                       !- View Factor to Ground
  ,                                       !- Number of Vertices
  2.47, 0, 0,                             !- X,Y,Z Vertex 1 {m}
  2.47, 2.1, 0,                           !- X,Y,Z Vertex 2 {m}
  0, 2.1, 0,                              !- X,Y,Z Vertex 3 {m}
  0, 9.3, 0,                              !- X,Y,Z Vertex 4 {m}
  5.34, 9.3, 0,                           !- X,Y,Z Vertex 5 {m}
  5.34, 10.42, 0,                         !- X,Y,Z Vertex 6 {m}
  7.69, 10.42, 0,                         !- X,Y,Z Vertex 7 {m}
  7.69, 2.1, 0,                           !- X,Y,Z Vertex 8 {m}
  3.93, 2.1, 0,                           !- X,Y,Z Vertex 9 {m}
  3.93, 2, 0,                             !- X,Y,Z Vertex 10 {m}
  3.93, 0, 0;                             !- X,Y,Z Vertex 11 {m}

BuildingSurface:Detailed,
  North Wall 0,                           !- Name
  Wall,                                   !- Surface Type
  BG1 - Party Wall,                       !- Construction Name
  TZ_BG1,                                 !- Zone Name
  ,                                       !- Space Name
  Adiabatic,                              !- Outside Boundary Condition
  ,                                       !- Outside Boundary Condition Object
  NoSun,                                  !- Sun Exposure
  NoWind,                                 !- Wind Exposure
  ,                                       !- View Factor to Ground
  ,                                       !- Number of Vertices
  7.69, 10.42, 2.3,                       !- X,Y,Z Vertex 1 {m}
  7.69, 2.1, 2.3,                         !- X,Y,Z Vertex 2 {m}
  7.69, 2.1, 0,                           !- X,Y,Z Vertex 3 {m}
  7.69, 10.42, 0;                         !- X,Y,Z Vertex 4 {m}

BuildingSurface:Detailed,
  Roof 0,                                 !- Name
  Roof,                                   !- Surface Type
  BG1 - RoofCeiling (Non-metal),          !- Construction Name
  TZ_BG1,                                 !- Zone Name
  ,                                       !- Space Name
  Outdoors,                               !- Outside Boundary Condition
  ,                                       !- Outside Boundary Condition Object
  SunExposed,                             !- Sun Exposure
  WindExposed,                            !- Wind Exposure
  ,                                       !- View Factor to Ground
  ,                                       !- Number of Vertices
  3.93, 0, 2.3,                           !- X,Y,Z Vertex 1 {m}
  3.93, 2.1, 2.3,                         !- X,Y,Z Vertex 2 {m}
  2.47, 2.1, 2.3,                         !- X,Y,Z Vertex 3 {m}
  2.47, 0, 2.3;                           !- X,Y,Z Vertex 4 {m}

BuildingSurface:Detailed,
  South Wall 0,                           !- Name
  Wall,                                   !- Surface Type
  BG1 - Party Wall,                       !- Construction Name
  TZ_BG1,                                 !- Zone Name
  ,                                       !- Space Name
  Adiabatic,                              !- Outside Boundary Condition
  ,                                       !- Outside Boundary Condition Object
  NoSun,                                  !- Sun Exposure
  NoWind,                                 !- Wind Exposure
  ,                                       !- View Factor to Ground
  ,                                       !- Number of Vertices
  0, 2.1, 2.3,                            !- X,Y,Z Vertex 1 {m}
  0, 9.3, 2.3,                            !- X,Y,Z Vertex 2 {m}
  0, 9.3, 0,                              !- X,Y,Z Vertex 3 {m}
  0, 2.1, 0;                              !- X,Y,Z Vertex 4 {m}

BuildingSurface:Detailed,
  West Terrace Side Wall 0,               !- Name
  Wall,                                   !- Surface Type
  BG1 - Ext Wall (Concrete),              !- Construction Name
  TZ_BG1,                                 !- Zone Name
  ,                                       !- Space Name
  Outdoors,                               !- Outside Boundary Condition
  ,                                       !- Outside Boundary Condition Object
  SunExposed,                             !- Sun Exposure
  WindExposed,                            !- Wind Exposure
  ,                                       !- View Factor to Ground
  ,                                       !- Number of Vertices
  5.34, 9.3, 2.3,                         !- X,Y,Z Vertex 1 {m}
  5.34, 10.42, 2.3,                       !- X,Y,Z Vertex 2 {m}
  5.34, 10.42, 0,                         !- X,Y,Z Vertex 3 {m}
  5.34, 9.3, 0;                           !- X,Y,Z Vertex 4 {m}

BuildingSurface:Detailed,
  West Terrace Wall 0,                    !- Name
  Wall,                                   !- Surface Type
  BG1 - Ext Wall (Concrete),              !- Construction Name
  TZ_BG1,                                 !- Zone Name
  ,                                       !- Space Name
  Outdoors,                               !- Outside Boundary Condition
  ,                                       !- Outside Boundary Condition Object
  SunExposed,                             !- Sun Exposure
  WindExposed,                            !- Wind Exposure
  ,                                       !- View Factor to Ground
  ,                                       !- Number of Vertices
  5.34, 10.42, 2.3,                       !- X,Y,Z Vertex 1 {m}
  7.69, 10.42, 2.3,                       !- X,Y,Z Vertex 2 {m}
  7.69, 10.42, 0,                         !- X,Y,Z Vertex 3 {m}
  5.34, 10.42, 0;                         !- X,Y,Z Vertex 4 {m}

FenestrationSurface:Detailed,
  W1,                                     !- Name
  Window,                                 !- Surface Type
  BG1 - Window/GlassDoor,                 !- Construction Name
  West Terrace Wall 0,                    !- Building Surface Name
  ,                                       !- Outside Boundary Condition Object
  ,                                       !- View Factor to Ground
  ,                                       !- Frame and Divider Name
  ,                                       !- Multiplier
  ,                                       !- Number of Vertices
  7.44, 10.42, 2.1,                       !- X,Y,Z Vertex 1 {m}
  7.44, 10.42, 1.4,                       !- X,Y,Z Vertex 2 {m}
  6.84, 10.42, 1.4,                       !- X,Y,Z Vertex 3 {m}
  6.84, 10.42, 2.1;                       !- X,Y,Z Vertex 4 {m}

FenestrationSurface:Detailed,
  W2,                                     !- Name
  Window,                                 !- Surface Type
  BG1 - Window/GlassDoor,                 !- Construction Name
  West Terrace Wall 0,                    !- Building Surface Name
  ,                                       !- Outside Boundary Condition Object
  ,                                       !- View Factor to Ground
  ,                                       !- Frame and Divider Name
  ,                                       !- Multiplier
  ,                                       !- Number of Vertices
  6.84, 10.42, 2.1,                       !- X,Y,Z Vertex 1 {m}
  6.84, 10.42, 1.4,                       !- X,Y,Z Vertex 2 {m}
  5.64, 10.42, 1.4,                       !- X,Y,Z Vertex 3 {m}
  5.64, 10.42, 2.1;                       !- X,Y,Z Vertex 4 {m}

BuildingSurface:Detailed,
  West Wall 0,                            !- Name
  Wall,                                   !- Surface Type
  BG1 - Ext Wall (Concrete),              !- Construction Name
  TZ_BG1,                                 !- Zone Name
  ,                                       !- Space Name
  Outdoors,                               !- Outside Boundary Condition
  ,                                       !- Outside Boundary Condition Object
  SunExposed,                             !- Sun Exposure
  WindExposed,                            !- Wind Exposure
  ,                                       !- View Factor to Ground
  ,                                       !- Number of Vertices
  0, 9.3, 2.3,                            !- X,Y,Z Vertex 1 {m}
  5.34, 9.3, 2.3,                         !- X,Y,Z Vertex 2 {m}
  5.34, 9.3, 0,                           !- X,Y,Z Vertex 3 {m}
  0, 9.3, 0;                              !- X,Y,Z Vertex 4 {m}

FenestrationSurface:Detailed,
  W3,                                     !- Name
  Window,                                 !- Surface Type
  BG1 - Window/GlassDoor,                 !- Construction Name
  West Wall 0,                            !- Building Surface Name
  ,                                       !- Outside Boundary Condition Object
  ,                                       !- View Factor to Ground
  ,                                       !- Frame and Divider Name
  ,                                       !- Multiplier
  ,                                       !- Number of Vertices
  2.39, 9.3, 2.1,                         !- X,Y,Z Vertex 1 {m}
  2.39, 9.3, 1.4,                         !- X,Y,Z Vertex 2 {m}
  1.69, 9.3, 1.4,                         !- X,Y,Z Vertex 3 {m}
  1.69, 9.3, 2.1;                         !- X,Y,Z Vertex 4 {m}

FenestrationSurface:Detailed,
  W4,                                     !- Name
  Window,                                 !- Surface Type
  BG1 - Window/GlassDoor,                 !- Construction Name
  West Wall 0,                            !- Building Surface Name
  ,                                       !- Outside Boundary Condition Object
  ,                                       !- View Factor to Ground
  ,                                       !- Frame and Divider Name
  ,                                       !- Multiplier
  ,                                       !- Number of Vertices
  1.69, 9.3, 2.1,                         !- X,Y,Z Vertex 1 {m}
  1.69, 9.3, 1.4,                         !- X,Y,Z Vertex 2 {m}
  0.99, 9.3, 1.4,                         !- X,Y,Z Vertex 3 {m}
  0.99, 9.3, 2.1;                         !- X,Y,Z Vertex 4 {m}

BuildingSurface:Detailed,
  East Wall 1,                            !- Name
  Wall,                                   !- Surface Type
  BG1 - Ext Wall (Concrete),              !- Construction Name
  TZ_BG1,                                 !- Zone Name
  ,                                       !- Space Name
  Outdoors,                               !- Outside Boundary Condition
  ,                                       !- Outside Boundary Condition Object
  SunExposed,                             !- Sun Exposure
  WindExposed,                            !- Wind Exposure
  ,                                       !- View Factor to Ground
  ,                                       !- Number of Vertices
  7.69, 2.1, 4.95,                        !- X,Y,Z Vertex 1 {m}
  0, 2.1, 4.95,                           !- X,Y,Z Vertex 2 {m}
  0, 2.1, 2.3,                            !- X,Y,Z Vertex 3 {m}
  7.69, 2.1, 2.3;                         !- X,Y,Z Vertex 4 {m}

FenestrationSurface:Detailed,
  D4,                                     !- Name
  Door,                                   !- Surface Type
  BG1 - Ext Door,                         !- Construction Name
  East Wall 1,                            !- Building Surface Name
  ,                                       !- Outside Boundary Condition Object
  ,                                       !- View Factor to Ground
  ,                                       !- Frame and Divider Name
  ,                                       !- Multiplier
  ,                                       !- Number of Vertices
  2.8, 2.1, 4.51,                         !- X,Y,Z Vertex 1 {m}
  2.8, 2.1, 2.31,                         !- X,Y,Z Vertex 2 {m}
  3.7, 2.1, 2.31,                         !- X,Y,Z Vertex 3 {m}
  3.7, 2.1, 4.51;                         !- X,Y,Z Vertex 4 {m}

FenestrationSurface:Detailed,
  W16,                                    !- Name
  Window,                                 !- Surface Type
  BG1 - Window/GlassDoor,                 !- Construction Name
  East Wall 1,                            !- Building Surface Name
  ,                                       !- Outside Boundary Condition Object
  ,                                       !- View Factor to Ground
  ,                                       !- Frame and Divider Name
  ,                                       !- Multiplier
  ,                                       !- Number of Vertices
  0.3, 2.1, 4.6,                          !- X,Y,Z Vertex 1 {m}
  0.3, 2.1, 3.9,                          !- X,Y,Z Vertex 2 {m}
  2.1, 2.1, 3.9,                          !- X,Y,Z Vertex 3 {m}
  2.1, 2.1, 4.6;                          !- X,Y,Z Vertex 4 {m}

FenestrationSurface:Detailed,
  W17,                                    !- Name
  Window,                                 !- Surface Type
  BG1 - Window/GlassDoor,                 !- Construction Name
  East Wall 1,                            !- Building Surface Name
  ,                                       !- Outside Boundary Condition Object
  ,                                       !- View Factor to Ground
  ,                                       !- Frame and Divider Name
  ,                                       !- Multiplier
  ,                                       !- Number of Vertices
  5.1, 2.1, 4.4,                          !- X,Y,Z Vertex 1 {m}
  5.1, 2.1, 3.2,                          !- X,Y,Z Vertex 2 {m}
  5.8, 2.1, 3.2,                          !- X,Y,Z Vertex 3 {m}
  5.8, 2.1, 4.4;                          !- X,Y,Z Vertex 4 {m}

FenestrationSurface:Detailed,
  W18,                                    !- Name
  Window,                                 !- Surface Type
  BG1 - Window/GlassDoor,                 !- Construction Name
  East Wall 1,                            !- Building Surface Name
  ,                                       !- Outside Boundary Condition Object
  ,                                       !- View Factor to Ground
  ,                                       !- Frame and Divider Name
  ,                                       !- Multiplier
  ,                                       !- Number of Vertices
  5.8, 2.1, 4.4,                          !- X,Y,Z Vertex 1 {m}
  5.8, 2.1, 4,                            !- X,Y,Z Vertex 2 {m}
  6.5, 2.1, 4,                            !- X,Y,Z Vertex 3 {m}
  6.5, 2.1, 4.4;                          !- X,Y,Z Vertex 4 {m}

FenestrationSurface:Detailed,
  W19,                                    !- Name
  Window,                                 !- Surface Type
  BG1 - Window/GlassDoor,                 !- Construction Name
  East Wall 1,                            !- Building Surface Name
  ,                                       !- Outside Boundary Condition Object
  ,                                       !- View Factor to Ground
  ,                                       !- Frame and Divider Name
  ,                                       !- Multiplier
  ,                                       !- Number of Vertices
  5.8, 2.1, 4,                            !- X,Y,Z Vertex 1 {m}
  5.8, 2.1, 3.2,                          !- X,Y,Z Vertex 2 {m}
  6.5, 2.1, 3.2,                          !- X,Y,Z Vertex 3 {m}
  6.5, 2.1, 4;                            !- X,Y,Z Vertex 4 {m}

BuildingSurface:Detailed,
  North Wall 1,                           !- Name
  Wall,                                   !- Surface Type
  BG1 - Party Wall,                       !- Construction Name
  TZ_BG1,                                 !- Zone Name
  ,                                       !- Space Name
  Adiabatic,                              !- Outside Boundary Condition
  ,                                       !- Outside Boundary Condition Object
  NoSun,                                  !- Sun Exposure
  NoWind,                                 !- Wind Exposure
  ,                                       !- View Factor to Ground
  ,                                       !- Number of Vertices
  7.69, 10.42, 4.95,                      !- X,Y,Z Vertex 1 {m}
  7.69, 2.1, 4.95,                        !- X,Y,Z Vertex 2 {m}
  7.69, 2.1, 2.3,                         !- X,Y,Z Vertex 3 {m}
  7.69, 10.42, 2.3;                       !- X,Y,Z Vertex 4 {m}

BuildingSurface:Detailed,
  Roof 1E,                                !- Name