
Version,
  25.2;                                   !- Version Identifier

Timestep,
  6;                                      !- Number of Timesteps per Hour

RunPeriod,
  Run Period 1,                           !- Name
  4,                                      !- Begin Month
  1,                                      !- Begin Day of Month
  2024,                                   !- Begin Year
  4,                                      !- End Month
  1,                                      !- End Day of Month
  2025,                                   !- End Year
  Monday,                                 !- Day of Week for Start Day
  No,                                     !- Use Weather File Holidays and Special Days
  No,                                     !- Use Weather File Daylight Saving Period
  No,                                     !- Apply Weekend Holiday Rule
  Yes,                                    !- Use Weather File Rain Indicators
  Yes;                                    !- Use Weather File Snow Indicators

Site:Location,
  REYKJAVIK,                              !- Name
  64.13,                                  !- Latitude {deg}
  -21.9,                                  !- Longitude {deg}
  0,                                      !- Time Zone {hr}
  87;                                     !- Elevation {m}

Site:GroundTemperature:BuildingSurface,
  3.0,    !- January Ground Temperature {C}
  2.6,    !- February
  2.4,    !- March
  2.2,    !- April
  3.5,    !- May
  5.8,    !- June
  8.4,    !- July
  10.2,   !- August
  10.6,   !- September
  10.0,   !- October
  7.6,    !- November
  5.0;    !- December

SimulationControl,
  No,                                     !- Do Zone Sizing Calculation
  No,                                     !- Do System Sizing Calculation
  No,                                     !- Do Plant Sizing Calculation
  No,                                     !- Run Simulation for Sizing Periods
  Yes,                                    !- Run Simulation for Weather File Run Periods
  ,                                       !- Do HVAC Sizing Simulation for Sizing Periods
  ;                                       !- Maximum Number of HVAC Sizing Simulation Passes

HeatBalanceAlgorithm,
  ConductionTransferFunction,             !- Algorithm
  200;                                    !- Surface Temperature Upper Limit {C}

ConvergenceLimits,
  1;                                      !- Minimum System Timestep {minutes}

Building,
  BG3,                                    !- Name
  287.66,                                 !- North Axis {deg}
  Suburbs,                                !- Terrain
  ,                                       !- Loads Convergence Tolerance Value {W}
  ,                                       !- Temperature Convergence Tolerance Value {deltaC}
  FullExterior,                           !- Solar Distribution: FullExterior accounts for shading objects
  ,                                       !- Maximum Number of Warmup Days
  ;                                       !- Minimum Number of Warmup Days

Zone,
  TZ_BG3,                                 !- Name
  ,                                       !- Direction of Relative North {deg}
  0,                                      !- X Origin {m}
  0,                                      !- Y Origin {m}
  0,                                      !- Z Origin {m}
  ,                                       !- Type
  1,                                      !- Multiplier
  ,                                       !- Ceiling Height {m}
  663.00,                                 !- Volume {m3}
  255.30,                                 !- Floor Area {m2}
  ,                                       !- Zone Inside Convection Algorithm
  ,                                       !- Zone Outside Convection Algorithm
  Yes;                                    !- Part of Total Floor Area

BuildingSurface:Detailed,
  Basement Floor,                         !- Name
  Floor,                                  !- Surface Type
  BG3 - Floor on Fill,                    !- Construction Name
  TZ_BG3,                                 !- Zone Name
  ,                                       !- Space Name
  Ground,                                 !- Outside Boundary Condition
  ,                                       !- Outside Boundary Condition Object
  NoSun,                                  !- Sun Exposure
  NoWind,                                 !- Wind Exposure
  ,                                       !- View Factor to Ground
  ,                                       !- Number of Vertices
  0, 0, 0,                                !- X,Y,Z Vertex 1 {m}
  0, 9.9, 0,                              !- X,Y,Z Vertex 2 {m}
  3, 9.9, 0,                              !- X,Y,Z Vertex 3 {m}
  3, 11.6, 0,                             !- X,Y,Z Vertex 4 {m}
  8, 11.6, 0,                             !- X,Y,Z Vertex 5 {m}
  8, 0, 0;                                !- X,Y,Z Vertex 6 {m}

BuildingSurface:Detailed,
  Basement Roof,                          !- Name
  Roof,                                   !- Surface Type
  BG3 - RoofCeiling,                      !- Construction Name
  TZ_BG3,                                 !- Zone Name
  ,                                       !- Space Name
  Outdoors,                               !- Outside Boundary Condition
  ,                                       !- Outside Boundary Condition Object
  SunExposed,                             !- Sun Exposure
  WindExposed,                            !- Wind Exposure
  ,                                       !- View Factor to Ground
  ,                                       !- Number of Vertices
  3, 0, 2.4,                              !- X,Y,Z Vertex 1 {m}
  3, 1.3, 2.4,                            !- X,Y,Z Vertex 2 {m}
  0, 1.3, 2.4,                            !- X,Y,Z Vertex 3 {m}
  0, 0, 2.4;                              !- X,Y,Z Vertex 4 {m}

BuildingSurface:Detailed,
  East Wall 0,                            !- Name
  Wall,                                   !- Surface Type
  BG3 - Ground Contact Wall,              !- Construction Name
  TZ_BG3,                                 !- Zone Name
  ,                                       !- Space Name
  Ground,                                 !- Outside Boundary Condition
  ,                                       !- Outside Boundary Condition Object
  NoSun,                                  !- Sun Exposure
  NoWind,                                 !- Wind Exposure
  ,                                       !- View Factor to Ground
  ,                                       !- Number of Vertices
  8, 0, 2.4,                              !- X,Y,Z Vertex 1 {m}
  0, 0, 2.4,                              !- X,Y,Z Vertex 2 {m}
  0, 0, 0,                                !- X,Y,Z Vertex 3 {m}
  8, 0, 0;                                !- X,Y,Z Vertex 4 {m}

BuildingSurface:Detailed,
  North Wall 0,                           !- Name
  Wall,                                   !- Surface Type
  BG3 - Party Wall,                       !- Construction Name
  TZ_BG3,                                 !- Zone Name
  ,                                       !- Space Name
  Adiabatic,                              !- Outside Boundary Condition
  ,                                       !- Outside Boundary Condition Object
  NoSun,                                  !- Sun Exposure
  NoWind,                                 !- Wind Exposure
  ,                                       !- View Factor to Ground
  ,                                       !- Number of Vertices
  8, 11.6, 2.4,                           !- X,Y,Z Vertex 1 {m}
  8, 0, 2.4,                              !- X,Y,Z Vertex 2 {m}
  8, 0, 0,                                !- X,Y,Z Vertex 3 {m}
  8, 11.6, 0;                             !- X,Y,Z Vertex 4 {m}

BuildingSurface:Detailed,
  South Wall 0,                           !- Name
  Wall,                                   !- Surface Type
  BG3 - Party Wall,                       !- Construction Name
  TZ_BG3,                                 !- Zone Name
  ,                                       !- Space Name
  Adiabatic,                              !- Outside Boundary Condition
  ,                                       !- Outside Boundary Condition Object
  NoSun,                                  !- Sun Exposure
  NoWind,                                 !- Wind Exposure
  ,                                       !- View Factor to Ground
  ,                                       !- Number of Vertices
  0, 0, 2.4,                              !- X,Y,Z Vertex 1 {m}
  0, 9.9, 2.4,                            !- X,Y,Z Vertex 2 {m}
  0, 9.9, 0,                              !- X,Y,Z Vertex 3 {m}
  0, 0, 0;                                !- X,Y,Z Vertex 4 {m}

BuildingSurface:Detailed,
  West Terrace Side Wall 0,               !- Name
  Wall,                                   !- Surface Type
  BG3 - Ext Wall,                         !- Construction Name
  TZ_BG3,                                 !- Zone Name
  ,                                       !- Space Name
  Outdoors,                               !- Outside Boundary Condition
  ,                                       !- Outside Boundary Condition Object
  SunExposed,                             !- Sun Exposure
  WindExposed,                            !- Wind Exposure
  ,                                       !- View Factor to Ground
  ,                                       !- Number of Vertices
  3, 9.9, 2.4,                            !- X,Y,Z Vertex 1 {m}
  3, 11.6, 2.4,                           !- X,Y,Z Vertex 2 {m}
  3, 11.6, 0,                             !- X,Y,Z Vertex 3 {m}
  3, 9.9, 0;                              !- X,Y,Z Vertex 4 {m}

BuildingSurface:Detailed,
  West Terrace Wall 0,                    !- Name
  Wall,                                   !- Surface Type
  BG3 - Ext Wall,                         !- Construction Name
  TZ_BG3,                                 !- Zone Name
  ,                                       !- Space Name
  Outdoors,                               !- Outside Boundary Condition
  ,                                       !- Outside Boundary Condition Object
  SunExposed,                             !- Sun Exposure
  WindExposed,                            !- Wind Exposure
  ,                                       !- View Factor to Ground
  ,                                       !- Number of Vertices
  0, 9.9, 2.4,                            !- X,Y,Z Vertex 1 {m}
  3, 9.9, 2.4,                            !- X,Y,Z Vertex 2 {m}
  3, 9.9, 0,                              !- X,Y,Z Vertex 3 {m}
  0, 9.9, 0;                              !- X,Y,Z Vertex 4 {m}

FenestrationSurface:Detailed,
  D1,                                     !- Name
  GlassDoor,                              !- Surface Type
  BG3 - Window/GlassDoor,                 !- Construction Name
  West Terrace Wall 0,                    !- Building Surface Name
  ,                                       !- Outside Boundary Condition Object
  ,                                       !- View Factor to Ground
  ,                                       !- Frame and Divider Name
  ,                                       !- Multiplier
  ,                                       !- Number of Vertices
  2.85, 9.9, 2.1,                         !- X,Y,Z Vertex 1 {m}
  2.85, 9.9, 0.000001,                    !- X,Y,Z Vertex 2 {m}
  1.95, 9.9, 0.000001,                    !- X,Y,Z Vertex 3 {m}
  1.95, 9.9, 2.1;                         !- X,Y,Z Vertex 4 {m}

FenestrationSurface:Detailed,
  W6,                                     !- Name
  Window,                                 !- Surface Type
  BG3 - Window/GlassDoor,                 !- Construction Name
  West Terrace Wall 0,                    !- Building Surface Name
  ,                                       !- Outside Boundary Condition Object
  ,                                       !- View Factor to Ground
  ,                                       !- Frame and Divider Name
  ,                                       !- Multiplier
  ,                                       !- Number of Vertices
  1.95, 9.9, 2.1,                         !- X,Y,Z Vertex 1 {m}
  1.95, 9.9, 1.45,                        !- X,Y,Z Vertex 2 {m}
  1.05, 9.9, 1.45,                        !- X,Y,Z Vertex 3 {m}
  1.05, 9.9, 2.1;                         !- X,Y,Z Vertex 4 {m}

FenestrationSurface:Detailed,
  W7,                                     !- Name
  Window,                                 !- Surface Type
  BG3 - Window/GlassDoor,                 !- Construction Name
  West Terrace Wall 0,                    !- Building Surface Name
  ,                                       !- Outside Boundary Condition Object
  ,                                       !- View Factor to Ground
  ,                                       !- Frame and Divider Name
  ,                                       !- Multiplier
  ,                                       !- Number of Vertices
  1.95, 9.9, 1.45,                        !- X,Y,Z Vertex 1 {m}
  1.95, 9.9, 0.8,                         !- X,Y,Z Vertex 2 {m}
  1.05, 9.9, 0.8,                         !- X,Y,Z Vertex 3 {m}
  1.05, 9.9, 1.45;                        !- X,Y,Z Vertex 4 {m}

FenestrationSurface:Detailed,
  W8,                                     !- Name
  Window,                                 !- Surface Type
  BG3 - Window/GlassDoor,                 !- Construction Name
  West Terrace Wall 0,                    !- Building Surface Name
  ,                                       !- Outside Boundary Condition Object
  ,                                       !- View Factor to Ground
  ,                                       !- Frame and Divider Name
  ,                                       !- Multiplier
  ,                                       !- Number of Vertices
  1.05, 9.9, 2.1,                         !- X,Y,Z Vertex 1 {m}
  1.05, 9.9, 0.8,                         !- X,Y,Z Vertex 2 {m}
  0.15, 9.9, 0.8,                         !- X,Y,Z Vertex 3 {m}
  0.15, 9.9, 2.1;                         !- X,Y,Z Vertex 4 {m}

BuildingSurface:Detailed,
  West Wall 0,                            !- Name
  Wall,                                   !- Surface Type
  BG3 - Ext Wall,                         !- Construction Name
  TZ_BG3,                                 !- Zone Name
  ,                                       !- Space Name
  Outdoors,                               !- Outside Boundary Condition
  ,                                       !- Outside Boundary Condition Object
  SunExposed,                             !- Sun Exposure
  WindExposed,                            !- Wind Exposure
  ,                                       !- View Factor to Ground
  ,                                       !- Number of Vertices
  3, 11.6, 2.4,                           !- X,Y,Z Vertex 1 {m}
  8, 11.6, 2.4,                           !- X,Y,Z Vertex 2 {m}
  8, 11.6, 0,                             !- X,Y,Z Vertex 3 {m}
  3, 11.6, 0;                             !- X,Y,Z Vertex 4 {m}

FenestrationSurface:Detailed,
  W1,                                     !- Name
  Window,                                 !- Surface Type
  BG3 - Window/GlassDoor,                 !- Construction Name
  West Wall 0,                            !- Building Surface Name
  ,                                       !- Outside Boundary Condition Object
  ,                                       !- View Factor to Ground
  ,                                       !- Frame and Divider Name
  ,                                       !- Multiplier
  ,                                       !- Number of Vertices
  7.8, 11.6, 2.1,                         !- X,Y,Z Vertex 1 {m}
  7.8, 11.6, 1.45,                        !- X,Y,Z Vertex 2 {m}
  6.9, 11.6, 1.45,                        !- X,Y,Z Vertex 3 {m}
  6.9, 11.6, 2.1;                         !- X,Y,Z Vertex 4 {m}

FenestrationSurface:Detailed,
  W2,                                     !- Name
  Window,                                 !- Surface Type
  BG3 - Window/GlassDoor,                 !- Construction Name
  West Wall 0,                            !- Building Surface Name
  ,                                       !- Outside Boundary Condition Object
  ,                                       !- View Factor to Ground
  ,                                       !- Frame and Divider Name
  ,                                       !- Multiplier
  ,                                       !- Number of Vertices
  6.9, 11.6, 2.1,                         !- X,Y,Z Vertex 1 {m}
  6.9, 11.6, 1.45,                        !- X,Y,Z Vertex 2 {m}
  6, 11.6, 1.45,                          !- X,Y,Z Vertex 3 {m}
  6, 11.6, 2.1;                           !- X,Y,Z Vertex 4 {m}

FenestrationSurface:Detailed,
  W3,                                     !- Name
  Window,                                 !- Surface Type
  BG3 - Window/GlassDoor,                 !- Construction Name
  West Wall 0,                            !- Building Surface Name
  ,                                       !- Outside Boundary Condition Object
  ,                                       !- View Factor to Ground
  ,                                       !- Frame and Divider Name
  ,                                       !- Multiplier
  ,                                       !- Number of Vertices
  6, 11.6, 2.1,                           !- X,Y,Z Vertex 1 {m}
  6, 11.6, 1.45,                          !- X,Y,Z Vertex 2 {m}
  5.1, 11.6, 1.45,                        !- X,Y,Z Vertex 3 {m}
  5.1, 11.6, 2.1;                         !- X,Y,Z Vertex 4 {m}

FenestrationSurface:Detailed,
  W4,                                     !- Name
  Window,                                 !- Surface Type
  BG3 - Window/GlassDoor,                 !- Construction Name
  West Wall 0,                            !- Building Surface Name
  ,                                       !- Outside Boundary Condition Object
  ,                                       !- View Factor to Ground
  ,                                       !- Frame and Divider Name
  ,                                       !- Multiplier
  ,                                       !- Number of Vertices
  5.1, 11.6, 2.1,                         !- X,Y,Z Vertex 1 {m}
  5.1, 11.6, 1.45,                        !- X,Y,Z Vertex 2 {m}
  4.2, 11.6, 1.45,                        !- X,Y,Z Vertex 3 {m}
  4.2, 11.6, 2.1;                         !- X,Y,Z Vertex 4 {m}

FenestrationSurface:Detailed,
  W5,                                     !- Name
  Window,                                 !- Surface Type
  BG3 - Window/GlassDoor,                 !- Construction Name
  West Wall 0,                            !- Building Surface Name
  ,                                       !- Outside Boundary Condition Object
  ,                                       !- View Factor to Ground
  ,                                       !- Frame and Divider Name
  ,                                       !- Multiplier
  ,                                       !- Number of Vertices
  4.2, 11.6, 2.1,                         !- X,Y,Z Vertex 1 {m}
  4.2, 11.6, 1.45,                        !- X,Y,Z Vertex 2 {m}
  3.3, 11.6, 1.45,                        !- X,Y,Z Vertex 3 {m}
  3.3, 11.6, 2.1;                         !- X,Y,Z Vertex 4 {m}


BuildingSurface:Detailed,
  East Terrace Side Wall 1,               !- Name
  Wall,                                   !- Surface Type
  BG3 - Ext Wall,                         !- Construction Name
  TZ_BG3,                                 !- Zone Name
  ,                                       !- Space Name
  Outdoors,                               !- Outside Boundary Condition
  ,                                       !- Outside Boundary Condition Object
  SunExposed,                             !- Sun Exposure
  WindExposed,                            !- Wind Exposure
  ,                                       !- View Factor to Ground
  ,                                       !- Number of Vertices
  3, 0, 5.1,                              !- X,Y,Z Vertex 1 {m}
  3, 1.3, 5.1,                            !- X,Y,Z Vertex 2 {m}
  3, 1.3, 2.4,                            !- X,Y,Z Vertex 3 {m}
  3, 0, 2.4;                              !- X,Y,Z Vertex 4 {m}

BuildingSurface:Detailed,
  East Terrace Wall 1,                    !- Name
  Wall,                                   !- Surface Type
  BG3 - Ext Wall,                         !- Construction Name
  TZ_BG3,                                 !- Zone Name
  ,                                       !- Space Name
  Outdoors,                               !- Outside Boundary Condition
  ,                                       !- Outside Boundary Condition Object
  SunExposed,                             !- Sun Exposure
  WindExposed,                            !- Wind Exposure
  ,                                       !- View Factor to Ground
  ,                                       !- Number of Vertices
  3, 1.3, 5.1,                            !- X,Y,Z Vertex 1 {m}
  0, 1.3, 5.1,                            !- X,Y,Z Vertex 2 {m}
  0, 1.3, 2.4,                            !- X,Y,Z Vertex 3 {m}
  3, 1.3, 2.4;                            !- X,Y,Z Vertex 4 {m}

FenestrationSurface:Detailed,
  D4,                                     !- Name
  Door,                                   !- Surface Type
  BG3 - Ext Door,                         !- Construction Name
  East Terrace Wall 1,                    !- Building Surface Name
  ,                                       !- Outside Boundary Condition Object
  ,                                       !- View Factor to Ground
  ,                                       !- Frame and Divider Name
  ,                                       !- Multiplier
  ,                                       !- Number of Vertices
  1.5, 1.3, 4.55,                         !- X,Y,Z Vertex 1 {m}
  1.5, 1.3, 2.400001,                     !- X,Y,Z Vertex 2 {m}
  2.4, 1.3, 2.400001,                     !- X,Y,Z Vertex 3 {m}
  2.4, 1.3, 4.55;                         !- X,Y,Z Vertex 4 {m}

FenestrationSurface:Detailed,
  W32,                                    !- Name
  Window,                                 !- Surface Type
  BG3 - Window/GlassDoor,                 !- Construction Name
  East Terrace Wall 1,                    !- Building Surface Name
  ,                                       !- Outside Boundary Condition Object
  ,                                       !- View Factor to Ground
  ,                                       !- Frame and Divider Name
  ,                                       !- Multiplier
  ,                                       !- Number of Vertices
  0.7, 1.3, 4,                            !- X,Y,Z Vertex 1 {m}
  0.7, 1.3, 3.4,                          !- X,Y,Z Vertex 2 {m}
  1.3, 1.3, 3.4,                          !- X,Y,Z Vertex 3 {m}
  1.3, 1.3, 4;                            !- X,Y,Z Vertex 4 {m}

FenestrationSurface:Detailed,
  W33,                                    !- Name
  Window,                                 !- Surface Type
  BG3 - Window/GlassDoor,                 !- Construction Name
  East Terrace Wall 1,                    !- Building Surface Name
  ,                                       !- Outside Boundary Condition Object
  ,                                       !- View Factor to Ground
  ,                                       !- Frame and Divider Name
  ,                                       !- Multiplier
  ,                                       !- Number of Vertices
  2.4, 1.3, 4.55,                         !- X,Y,Z Vertex 1 {m}
  2.4, 1.3, 2.41,                         !- X,Y,Z Vertex 2 {m}
  2.8, 1.3, 2.41,                         !- X,Y,Z Vertex 3 {m}
  2.8, 1.3, 4.55;                         !- X,Y,Z Vertex 4 {m}

BuildingSurface:Detailed,
  East Wall 1,                            !- Name
  Wall,                                   !- Surface Type
  BG3 - Ext Wall,                         !- Construction Name
  TZ_BG3,                                 !- Zone Name
  ,                                       !- Space Name
  Outdoors,                               !- Outside Boundary Condition
  ,                                       !- Outside Boundary Condition Object
  SunExposed,                             !- Sun Exposure
  WindExposed,                            !- Wind Exposure
  ,                                       !- View Factor to Ground
  ,                                       !- Number of Vertices
  8, 0, 5.1,                              !- X,Y,Z Vertex 1 {m}
  3, 0, 5.1,                              !- X,Y,Z Vertex 2 {m}
  3, 0, 2.4,                              !- X,Y,Z Vertex 3 {m}
  8, 0, 2.4;                              !- X,Y,Z Vertex 4 {m}

FenestrationSurface:Detailed,
  W34,                                    !- Name
  Window,                                 !- Surface Type
  BG3 - Window/GlassDoor,                 !- Construction Name
  East Wall 1,                            !- Building Surface Name
  ,                                       !- Outside Boundary Condition Object
  ,                                       !- View Factor to Ground
  ,                                       !- Frame and Divider Name
  ,                                       !- Multiplier
  ,                                       !- Number of Vertices
  3.3, 0, 4.55,                           !- X,Y,Z Vertex 1 {m}
  3.3, 0, 3.25,                           !- X,Y,Z Vertex 2 {m}
  4.2, 0, 3.25,                           !- X,Y,Z Vertex 3 {m}
  4.2, 0, 4.55;                           !- X,Y,Z Vertex 4 {m}

FenestrationSurface:Detailed,
  W35,                                    !- Name
  Window,                                 !- Surface Type
  BG3 - Window/GlassDoor,                 !- Construction Name
  East Wall 1,                            !- Building Surface Name
  ,                                       !- Outside Boundary Condition Object
  ,                                       !- View Factor to Ground
  ,                                       !- Frame and Divider Name
  ,                                       !- Multiplier
  ,                                       !- Number of Vertices
  4.2, 0, 4.55,                           !- X,Y,Z Vertex 1 {m}
  4.2, 0, 3.9,                            !- X,Y,Z Vertex 2 {m}
  5.1, 0, 3.9,                            !- X,Y,Z Vertex 3 {m}
  5.1, 0, 4.55;                           !- X,Y,Z Vertex 4 {m}

FenestrationSurface:Detailed,
  W36,                                    !- Name
  Window,                                 !- Surface Type
  BG3 - Window/GlassDoor,                 !- Construction Name
  East Wall 1,                            !- Building Surface Name
  ,                                       !- Outside Boundary Condition Object
  ,                                       !- View Factor to Ground
  ,                                       !- Frame and Divider Name
  ,                                       !- Multiplier
  ,                                       !- Number of Vertices
  4.2, 0, 3.9,                            !- X,Y,Z Vertex 1 {m}
  4.2, 0, 3.25,                           !- X,Y,Z Vertex 2 {m}
  5.1, 0, 3.25,                           !- X,Y,Z Vertex 3 {m}
  5.1, 0, 3.9;                            !- X,Y,Z Vertex 4 {m}

FenestrationSurface:Detailed,
  W37,                                    !- Name
  Window,                                 !- Surface Type
  BG3 - Window/GlassDoor,                 !- Construction Name
  East Wall 1,                            !- Building Surface Name
  ,                                       !- Outside Boundary Condition Object
  ,                                       !- View Factor to Ground
  ,                                       !- Frame and Divider Name
  ,                                       !- Multiplier
  ,                                       !- Number of Vertices
  5.1, 0, 4.55,                           !- X,Y,Z Vertex 1 {m}
  5.1, 0, 3.25,                           !- X,Y,Z Vertex 2 {m}
  6, 0, 3.25,                             !- X,Y,Z Vertex 3 {m}
  6, 0, 4.55;                             !- X,Y,Z Vertex 4 {m}

FenestrationSurface:Detailed,
  W38,                                    !- Name
  Window,                                 !- Surface Type
  BG3 - Window/GlassDoor,                 !- Construction Name
  East Wall 1,                            !- Building Surface Name
  ,                                       !- Outside Boundary Condition Object
  ,                                       !- View Factor to Ground
  ,                                       !- Frame and Divider Name
  ,                                       !- Multiplier
  ,                                       !- Number of Vertices
  6, 0, 4.55,                             !- X,Y,Z Vertex 1 {m}
  6, 0, 3.9,                              !- X,Y,Z Vertex 2 {m}
  6.9, 0, 3.9,                            !- X,Y,Z Vertex 3 {m}
  6.9, 0, 4.55;                           !- X,Y,Z Vertex 4 {m}

FenestrationSurface:Detailed,
  W39,                                    !- Name
  Window,                                 !- Surface Type
  BG3 - Window/GlassDoor,                 !- Construction Name
  East Wall 1,                            !- Building Surface Name
  ,                                       !- Outside Boundary Condition Object
  ,                                       !- View Factor to Ground
  ,                                       !- Frame and Divider Name
  ,                                       !- Multiplier
  ,                                       !- Number of Vertices
  6, 0, 3.9,                              !- X,Y,Z Vertex 1 {m}